21
Properties=species:S:1:pos:R:3 -405691.53402203316=T pbc="F F F"
C        2.02169113      -1.08738567      -0.44437014
C        1.17936213       1.44702933      -1.26800514
C        2.60771413      -0.42543067      -1.56936414
C        2.18003113       0.83526033      -1.91149314
C       -3.06058087       1.81541333       0.23263186
C        0.87095913      -0.51407667       0.17826886
C        0.43692213       0.79071733      -0.30263714
O        0.29263513      -2.58502367       1.39970086
O       -2.15027787      -0.21494067      -0.68548314
O       -0.62404487      -0.65615667       2.16548286
C        0.15013413      -1.36974667       1.34745686
C       -2.00207987       0.81262833      -0.10160014
O       -0.71021987       1.34925433       0.16993086
H       -1.08239087      -1.31474367       2.64344286
H        2.47488513      -2.03460967      -0.23311614
H        0.90754013       2.48185833      -1.33638214
H        3.57297513      -0.80050467      -1.94509214
H        2.72986813       1.51151233      -2.59880614
H       -3.97516787       1.51585133      -0.27414514
H       -3.42292987       1.89591133       1.21664186
H       -2.74825287       2.74402433      -0.16075514
