21
Properties=species:S:1:pos:R:3 -405681.3099056863=T pbc="F F F"
C        2.14346219      -1.01378152      -0.11499847
C        0.56016719       0.59023148      -1.73839247
C        2.70629219      -0.55760052      -1.34615047
C        1.95958619       0.31726548      -2.07850947
C       -3.28430381       1.70821948       0.42223953
C        0.89375119      -0.62042352       0.34746353
C        0.04752219       0.20665848      -0.46908947
O       -0.58706681      -1.63971252       1.99332253
O       -2.16787481       1.08152248      -1.76321447
O        1.43607319      -0.81133052       2.52547253
C        0.45672819      -1.14495352       1.73128453
C       -2.21561581       1.17478948      -0.57243947
O       -1.06483681       0.63211348       0.18797453
H        1.18464219      -0.87336252       3.47300953
H        2.70194919      -1.76058152       0.58791153
H       -0.12405981       1.04195248      -2.59219747
H        3.72973119      -0.99295452      -1.60859447
H        2.17291119       0.62556548      -3.10184547
H       -3.21132781       2.84723448       0.35220853
H       -4.31264981       1.37014748       0.13551153
H       -3.21669481       1.58185048       1.50496353
