21
Properties=species:S:1:pos:R:3 -405681.2114182759=T pbc="F F F"
C        1.85594233      -1.25157594      -0.59844725
C        0.80731833       1.14859606      -1.42271525
C        2.22713133      -0.77000794      -1.76958725
C        1.72833433       0.46977706      -2.18280825
C       -3.11441267       1.96323306       0.31488575
C        0.87983933      -0.52648594       0.25535975
C        0.23657633       0.61827606      -0.22959325
O        1.52184133      -1.82747494       2.17928975
O       -2.30361667       0.08020206      -1.08612825
O       -0.62032767      -1.12587194       2.12460875
C        0.72974033      -1.17011394       1.58707075
C       -2.07758567       1.11041006      -0.32914925
O       -0.85176267       1.40889906       0.27857475
H       -0.62546867      -1.78986494       2.80514875
H        2.23735933      -2.15321494      -0.28281325
H        0.42224533       2.09383206      -1.80268125
H        2.87895833      -1.33558194      -2.43712925
H        1.94754633       0.87826806      -3.18352825
H       -4.08645667       2.00251006      -0.17382925
H       -3.19493067       1.60362106       1.28067175
H       -2.77843867       2.98210906       0.39681575
