21
Properties=species:S:1:pos:R:3 -405693.14267680683=T pbc="F F F"
C        1.82382377      -1.28871763      -0.40706038
C        1.46852877       1.46231637      -0.37508238
C        2.78725877      -0.43777463      -1.02774338
C        2.65003377       0.90469637      -0.96528438
C       -2.73059623       2.50059337       0.33903262
C        0.60176577      -0.80205563       0.07525462
C        0.49312377       0.55497437       0.15528662
O       -1.56486923      -1.64204163       0.65568162
O       -1.86416323       1.08466437      -1.21489138
O        0.27609377      -2.84713163       1.13410562
C       -0.33571023      -1.75435063       0.67883762
C       -1.73669523       1.51640137      -0.13922238
O       -0.67353323       1.07754337       0.72198862
H       -0.44950023      -3.52196763       1.36331462
H        2.00186177      -2.37464763      -0.51216838
H        1.25638977       2.50808537      -0.35908938
H        3.67623677      -0.93557663      -1.40066238
H        3.30097077       1.54045337      -1.48964538
H       -3.58099223       2.55701137      -0.30335338
H       -3.07606723       2.07970037       1.27883562
H       -2.19054623       3.45204437       0.67682562
