21
Properties=species:S:1:pos:R:3 -405686.43355520343=T pbc="F F F"
C        2.08129719      -0.96776464      -0.09973180
C        0.87990619       1.00913336      -1.67879880
C        2.77489919      -0.53189064      -1.25835480
C        2.17559119       0.42481736      -2.07881380
C       -3.16157081       1.49966236       0.58765820
C        0.92288619      -0.44625164       0.36679220
C        0.37110519       0.58977336      -0.49555480
O       -1.06152981      -0.91907264       1.66200620
O       -2.28438481       0.18346636      -1.29964280
O        1.07186319      -1.77846564       2.17106320
C        0.13837219      -1.03860664       1.40611920
C       -2.11244181       0.89553236      -0.31513680
O       -0.75192081       1.29325636       0.19112220
H        0.58757019      -2.37183864       2.78750420
H        2.63026919      -1.70595764       0.53631320
H        0.22024119       1.74324736      -2.17336180
H        3.61991519      -1.06172764      -1.51162780
H        2.75478519       0.79660636      -2.96073680
H       -3.51479881       2.46772036       0.25273320
H       -4.04553881       0.83738236       0.64794220
H       -2.68939281       1.59057936       1.63828920
