21
Properties=species:S:1:pos:R:3 -405684.55391686567=T pbc="F F F"
C        1.43013564      -1.51027656      -0.80367711
C        1.07181564       1.17022044      -1.71646111
C        2.08387364      -1.09168956      -1.89806911
C        2.03700564       0.32109344      -2.23362111
C       -2.57883336       1.73797944       1.21454889
C        0.37436364      -0.67570056      -0.23477211
C        0.15610964       0.59263144      -0.83734711
O       -1.54748836      -1.41174556       1.23212889
O       -0.25500236       1.64741144       1.53750989
O        0.51332564      -2.13060856       1.50782189
C       -0.38794736      -1.41385956       0.86757589
C       -1.15680936       1.59307244       0.79235489
O       -0.98902636       1.27133544      -0.54672611
H        0.17415364      -2.56952456       2.26318689
H        1.74429964      -2.50904556      -0.28066511
H        1.14457164       2.27917144      -1.99749811
H        2.79672964      -1.76911356      -2.43204911
H        2.68421464       0.83028444      -2.98523711
H       -2.45604636       2.07669644       2.26728289
H       -3.05616836       2.24779644       0.45207989
H       -2.94948536       0.69659044       1.24521889
