21
Properties=species:S:1:pos:R:3 -405669.37194041314=T pbc="F F F"
C        1.80909976      -1.39805834      -0.57058227
C        1.06608876       1.32591466      -1.31765927
C        2.48722876      -0.75946134      -1.63062327
C        2.11171676       0.59232966      -1.99826627
C       -3.26306124       1.35187466       0.65125373
C        0.81551976      -0.56096434       0.12868873
C        0.28101176       0.67718266      -0.27173927
O        1.17702176      -1.81317234       2.26147073
O       -2.06318824       0.72840966      -1.40737327
O       -0.89005524      -1.13897134       1.74173473
C        0.44259876      -1.29683534       1.43736573
C       -2.06568524       1.00785566      -0.21530827
O       -0.80750124       1.33769566       0.32652273
H       -1.24585824      -1.43131834       2.64825773
H        2.07706976      -2.40762734      -0.03712727
H        0.85602276       2.38768766      -1.43553227
H        3.02234776      -1.41666534      -2.24074127
H        2.88772176       1.13242666      -2.56544027
H       -3.23964524       1.14086966       1.65597573
H       -3.13283924       2.42940166       0.65154773
H       -4.09018324       1.03680866       0.03278373
