21
Properties=species:S:1:pos:R:3 -405673.5719157134=T pbc="F F F"
C        2.19238587      -1.06945508      -0.18754344
C        0.79185187       0.92649092      -1.54524644
C        2.58087287      -0.64281708      -1.42248644
C        1.95206587       0.33634892      -2.12621344
C       -2.92136513       1.53163492       0.79081856
C        1.03250787      -0.43063508       0.30686556
C        0.31757187       0.53631592      -0.32810344
O        1.18918087      -1.77160508       2.26548356
O       -2.50293413       0.77430592      -1.45668944
O       -0.88094513      -0.99756008       1.54052556
C        0.49447687      -1.11559608       1.50753056
C       -2.14560613       1.01719592      -0.31692944
O       -0.90393113       1.01135992       0.20608556
H       -1.11366313      -1.66257108       2.18246356
H        2.74063487      -1.88303008       0.24016056
H        0.32794687       1.75195992      -2.07638344
H        3.24845287      -1.19874208      -1.97571144
H        2.53325787       0.77038692      -2.97339844
H       -2.35463413       1.90813992       1.62891156
H       -3.87649113       2.11691892       0.55435856
H       -3.46499913       0.83349392       1.40970856
