21
Properties=species:S:1:pos:R:3 -405686.0443421921=T pbc="F F F"
C        1.88984203      -1.20015768      -0.55444998
C        0.93875103       1.38691532      -1.28384898
C        2.46084303      -0.50441368      -1.55165598
C        2.06470903       0.80212732      -1.92682098
C       -3.21271097       1.72347732       0.10413802
C        0.81456103      -0.58770368       0.21310302
C        0.31820903       0.74359232      -0.14848798
O        0.61026103      -2.49689568       1.72267902
O       -1.99423697      -0.05980868      -0.94351298
O       -0.51026397      -0.63592568       2.08288302
C        0.34755203      -1.37865668       1.32854002
C       -1.89672197       0.93132932      -0.20861398
O       -0.73979797       1.43133332       0.37604402
H       -0.67797197      -1.25777768       2.84907502
H        2.17551603      -2.26553968      -0.17902298
H        0.69375503       2.38706632      -1.67717398
H        3.23882503      -1.02304368      -2.07815398
H        2.48234803       1.29463532      -2.82206598
H       -3.99417097       1.48587932      -0.62184898
H       -3.61380497       1.82950532       1.12171602
H       -2.85374897       2.68277632      -0.02155298
