21
Properties=species:S:1:pos:R:3 -405678.7548670127=T pbc="F F F"
C        1.73806302      -1.25184007      -0.53367735
C        0.88766602       1.15502993      -1.49878035
C        2.44658002      -0.63943607      -1.66130335
C        2.02025802       0.60672393      -2.10647635
C       -3.17701798       1.36109393       0.62145265
C        0.83152102      -0.49723007       0.14768065
C        0.28895802       0.65561593      -0.37111935
O        0.91672902      -2.12168507       1.89802565
O       -2.22015098       0.02396093      -1.06679235
O       -0.41896598      -0.32545607       2.25629065
C        0.46901102      -1.05718607       1.43622065
C       -2.02588898       0.73042093      -0.12602535
O       -0.73679298       1.39123893       0.08249465
H       -0.26743398      -0.67260907       3.19348765
H        2.01173602      -2.28937307      -0.15437135
H        0.39202102       2.05399593      -1.80613035
H        3.26993102      -1.31005107      -2.19547535
H        2.39751502       1.08550093      -2.99369035
H       -4.05005598       1.15872293       0.11318065
H       -3.08869398       1.15408993       1.61161365
H       -3.06167798       2.53813093       0.64396865
