21
Properties=species:S:1:pos:R:3 -405678.7991325338=T pbc="F F F"
C        2.30680145      -0.89758040      -0.04450607
C        0.72263345       0.92992760      -1.69559707
C        2.78106445      -0.50212440      -1.34842507
C        1.95158845       0.29532160      -2.22253107
C       -2.99009655       1.57070360       0.89358693
C        1.00627245      -0.46984540       0.31116693
C        0.25090945       0.39572760      -0.44872707
O        0.96402045      -1.99653940       2.10027593
O       -2.36148555       1.13465360      -1.41348307
O       -0.94510855      -1.14792040       1.59733393
C        0.43984145      -1.19108940       1.47459293
C       -2.09246255       1.12603760      -0.22881007
O       -0.87133555       0.88146560       0.26742193
H       -1.07882055      -2.11635440       1.73630293
H        2.94781645      -1.48322140       0.59040793
H        0.20205945       1.73546560      -2.22449407
H        3.82684345      -0.77573440      -1.74076307
H        2.52309745       0.59608060      -3.10774007
H       -3.67218655       2.27078460       0.42142693
H       -3.44116555       0.72474760       1.53540993
H       -2.41142755       1.98799860       1.69718793
