21
Properties=species:S:1:pos:R:3 -405683.37781589775=T pbc="F F F"
C        1.91263478      -1.28237806      -0.04400250
C        1.60436778       1.43409794      -0.68249150
C        2.95201178      -0.60368906      -0.65867050
C        2.85189578       0.77473694      -0.83438150
C       -2.87802122       1.62315394       0.85494650
C        0.56317078      -0.70733006       0.26931050
C        0.53867778       0.68438594      -0.02765650
O       -1.54724522      -1.38773206       1.07325050
O       -1.92076322       1.57639894      -1.47472450
O       -0.01902522      -2.95035906       0.44801750
C       -0.41638522      -1.63297606       0.63700150
C       -1.82748322       1.48175094      -0.25659150
O       -0.56885322       1.33889794       0.44294650
H       -0.86835222      -3.39379606       0.66541750
H        2.22121978      -2.37208106       0.03652750
H        1.57000578       2.49272194      -0.84016050
H        3.81374778      -1.22783106      -0.91769150
H        3.72459878       1.31153494      -1.19745650
H       -3.59378722       2.29928594       0.53928150
H       -3.28718022       0.60587894       0.95509750
H       -2.32692422       1.76911094       1.83166550
