21
Properties=species:S:1:pos:R:3 -405685.0173129028=T pbc="F F F"
C        1.94309078      -1.23781056      -0.15700488
C        1.54147678       1.38346544      -0.52882588
C        2.89987678      -0.49934756      -0.84401488
C        2.64940478       0.79504444      -1.06524288
C       -2.92575422       2.09652844       0.49158712
C        0.71237978      -0.70605656       0.38625312
C        0.59529678       0.71924544       0.18355412
O       -1.51655822      -1.44725656       1.30245912
O       -1.83956222       0.93865244      -1.38891488
O       -0.04381222      -2.87841656       0.34849612
C       -0.42134022      -1.66676556       0.75932112
C       -1.78932722       1.47142144      -0.24701488
O       -0.51473922       1.38622144       0.56621512
H       -0.82120922      -3.42838256       0.59764112
H        2.11671278      -2.28595356      -0.08143088
H        1.37020778       2.40722244      -0.62593488
H        3.78795078      -0.95890256      -1.34901588
H        3.34515178       1.44960344      -1.57620488
H       -3.40008922       1.31845344       0.99160212
H       -2.62841822       2.71519244       1.30230812
H       -3.61790522       2.48768944      -0.24248988
