21
Properties=species:S:1:pos:R:3 -405683.04142982455=T pbc="F F F"
C        2.08062468      -1.31249746      -0.18880224
C        1.24458168       1.16786954      -1.00324224
C        2.96332468      -0.57207146      -1.08932024
C        2.52832268       0.72974754      -1.40506124
C       -2.83478932       2.04053454       0.78699976
C        0.74894268      -0.90398446       0.13212176
C        0.36247268       0.37779054      -0.24175924
O       -1.32869732      -1.80232746       0.50475476
O       -1.81765932       1.93847754      -1.40849824
O        0.19834968      -2.23114946       2.14137276
C       -0.23221432      -1.68789846       0.93956776
C       -1.85061732       1.54452754      -0.24007524
O       -0.84053232       0.77985154       0.42130676
H       -0.38786932      -3.03915646       2.29553076
H        2.37968768      -2.30933846       0.03018476
H        0.89166968       2.19488154      -1.05830524
H        3.98300468      -0.87966346      -1.29874624
H        3.06021568       1.56230254      -1.97129324
H       -3.80026632       2.33999354       0.30761076
H       -3.18597232       1.55371154       1.77247876
H       -2.47453132       2.97035654       1.09368976
