21
Properties=species:S:1:pos:R:3 -405687.84455767216=T pbc="F F F"
C        2.13125299      -1.10373743      -0.35591478
C        0.91512699       1.20755657      -1.50918978
C        2.61351699      -0.59529243      -1.58774878
C        1.95621899       0.54909857      -2.18226078
C       -3.17077501       1.75664757       0.46274422
C        0.87744299      -0.61961543       0.25466122
C        0.31988699       0.62914957      -0.30739378
O        1.04697199      -2.07804943       2.16632422
O       -2.28741201       0.22180257      -1.25100578
O       -0.76663801      -0.81263143       1.94940322
C        0.43940999      -1.24537343       1.56385522
C       -2.08457901       0.96691557      -0.33429078
O       -0.85041601       1.20724057       0.27485722
H       -1.03454901      -1.34718443       2.75478022
H        2.68846799      -2.06639343      -0.05813078
H        0.53778099       2.14785757      -1.81429278
H        3.47545199      -0.98616143      -2.10826678
H        2.03369499       0.95296357      -3.24688678
H       -2.73262501       2.77207857       0.48577922
H       -4.23603601       1.71118757       0.24355122
H       -2.97925301       1.61269657       1.49025722
