21
Properties=species:S:1:pos:R:3 -405683.7900840718=T pbc="F F F"
C        1.84692961      -1.38283976      -0.50350137
C        1.19435561       1.36509424      -0.65530837
C        2.70596561      -0.53921376      -1.24558637
C        2.41026461       0.82935724      -1.26199037
C       -3.03273839       1.71109324       0.29266863
C        0.65819261      -0.87790076       0.15780563
C        0.42946661       0.54729924       0.04957863
O       -1.19286939      -1.30083476       1.72359063
O       -1.57567839       1.94811524      -1.53349737
O        0.44671161      -2.85163276       1.31002363
C       -0.21763139      -1.65467376       1.09810663
C       -1.76999839       1.50716924      -0.49323437
O       -0.82240139       0.92778624       0.50082363
H       -0.10585939      -3.25844876       2.04781663
H        2.10432361      -2.39592476      -0.33561037
H        0.93260461       2.35958524      -1.02048837
H        3.55464861      -1.07120576      -1.79773437
H        3.07949261       1.58581524      -1.64497137
H       -2.88756439       2.54692524       1.01863163
H       -3.80451239       1.79208924      -0.45803637
H       -3.27584839       0.77683024       0.93289563
