21
Properties=species:S:1:pos:R:3 -405687.09108219435=T pbc="F F F"
C        1.77360408      -1.20287489      -0.42734942
C        0.62367208       0.73103911      -2.03653842
C        2.54027208      -0.60496889      -1.41020842
C        1.88922108       0.21990811      -2.36336842
C       -2.43915592       2.29940411       1.18363658
C        0.45171708      -0.78013889      -0.24585742
C       -0.08174292       0.34627511      -0.95153642
O       -1.47100992      -1.18697089       0.98875158
O       -0.20388492       1.59615511       1.74008358
O        0.21048308      -2.65306189       1.22155358
C       -0.36150492      -1.49164889       0.73200358
C       -1.08455892       1.64963311       0.96219458
O       -1.01266392       1.13602011      -0.44135642
H       -0.39335492      -2.81197889       1.94490858
H        2.13882008      -1.97269789       0.27804958
H        0.29270108       1.66827811      -2.49572942
H        3.47099808      -1.11490089      -1.66136342
H        2.35428808       0.61968911      -3.28454342
H       -2.17578592       2.76036611       2.20350458
H       -2.60979092       3.06816811       0.41778858
H       -3.19463192       1.47474011       1.16619758
