21
Properties=species:S:1:pos:R:3 -405687.8703355476=T pbc="F F F"
C        1.90473573      -1.36306338      -0.30696675
C        1.31707173       1.46800862      -0.79339375
C        2.73972173      -0.59424238      -1.12201675
C        2.35723973       0.74908962      -1.45551975
C       -3.02727127       1.98234462       0.37681925
C        0.76490773      -0.72542638       0.22535125
C        0.48997673       0.61524862       0.01406925
O       -1.44884627      -1.47521538       0.91032625
O       -1.53201027       1.28124662      -1.44062075
O        0.37237473      -2.67731438       1.68791725
C       -0.24305027      -1.56313638       0.91885425
C       -1.80731127       1.42050462      -0.26854075
O       -0.73068927       1.13923962       0.69572725
H       -0.47852527      -2.87786838       2.15146225
H        2.20804173      -2.33882138       0.10220625
H        1.14654973       2.48288762      -1.05339375
H        3.68448473      -1.09846338      -1.47487075
H        2.94611173       1.17331262      -2.22801375
H       -3.37857027       2.93946262      -0.11170775
H       -3.87931127       1.32641262       0.43109425
H       -2.78706027       2.19528262       1.48067025
