21
Properties=species:S:1:pos:R:3 -405691.7266053078=T pbc="F F F"
C        1.75642616      -1.49055582      -0.68144487
C        0.85194816       1.01735518      -1.40871887
C        2.58771616      -0.69830982      -1.45828587
C        2.15652216       0.56096218      -1.80266887
C       -2.26221784       1.84785518       1.65937013
C        0.53330116      -1.00677382      -0.18511287
C        0.05623316       0.28507618      -0.58224687
O       -1.05741284      -1.33654282       1.65904913
O       -0.47667784       2.93563418       0.27624813
O       -0.45988584      -3.09108782       0.55789313
C       -0.33553284      -1.77322182       0.72625013
C       -1.21235184       2.05455018       0.55590313
O       -1.12166284       0.79795818      -0.13285587
H       -1.03449484      -3.52151782       1.23917513
H        1.99038816      -2.58801982      -0.65057587
H        0.49839816       1.96782918      -1.75161587
H        3.50386616      -1.02114882      -1.87612287
H        2.74354716       1.28909618      -2.40399987
H       -3.34494984       1.78431718       1.38995713
H       -2.04012284       0.90996218       2.19036113
H       -2.06871984       2.70537318       2.23005713
