21
Properties=species:S:1:pos:R:3 -405690.94421621755=T pbc="F F F"
C        1.54740925      -1.45664490      -0.68312064
C        0.79666125       0.97457010      -1.80462764
C        2.37102125      -0.79204490      -1.54120564
C        2.04322925       0.47262410      -2.07575864
C       -2.54496775       2.27073510       1.00078536
C        0.34307325      -0.90298490      -0.20001464
C       -0.00505575       0.30061310      -0.78992664
O       -1.18407875      -1.25657290       1.57852836
O       -0.12402375       2.35655310       1.15508836
O        0.16858325      -2.97294490       0.95351036
C       -0.32741475      -1.67183990       0.83428636
C       -1.14340375       1.88133510       0.74550336
O       -1.12977075       0.87567510      -0.20752564
H       -0.12848975      -3.29675690       1.86389936
H        1.76766825      -2.39040490      -0.21548364
H        0.44882825       1.90935910      -2.30705564
H        3.35277925      -1.38309990      -1.55927464
H        2.77840525       1.05076310      -2.59964564
H       -2.64993575       2.97713610       1.94261936
H       -3.08201975       2.76424010       0.16744836
H       -3.15156375       1.38040410       1.23205436
