21
Properties=species:S:1:pos:R:3 -405684.7570257493=T pbc="F F F"
C        2.13092651      -1.00826169      -0.28365029
C        0.75816051       1.05667131      -1.70837429
C        2.68355351      -0.42362269      -1.45118429
C        1.94647651       0.52309331      -2.25834829
C       -3.16731849       1.53630931       0.65081271
C        0.90483951      -0.53309469       0.17403871
C        0.16835451       0.50020531      -0.55731129
O        0.41288251      -2.35625569       1.78782171
O       -2.32509549      -0.02493769      -1.10600829
O        0.05452551      -0.10421069       2.43685271
C        0.43847351      -1.12737869       1.47309071
C       -2.09023349       0.75818231      -0.19553129
O       -0.85961549       1.23768831       0.07883671
H       -0.22070949      -0.69635169       3.16617271
H        2.59343351      -1.89822469       0.23619071
H        0.29411951       1.96285031      -2.04886929
H        3.69133351      -0.62834069      -1.73156029
H        2.26845251       0.89439231      -3.22710129
H       -4.07163749       1.72720231      -0.13138329
H       -3.71011249       0.83316631       1.34486471
H       -2.64654349       2.34167031       1.13522371
