21
Properties=species:S:1:pos:R:3 -405679.40489650116=T pbc="F F F"
C        1.98271856      -1.42278649      -0.27323079
C        1.12824156       1.20234551      -0.82781379
C        2.87271456      -0.50556249      -0.99634679
C        2.48815356       0.83096351      -1.01028779
C       -2.99268644       1.75714551       0.50352321
C        0.63648356      -0.95116149       0.09140621
C        0.21998756       0.31673051      -0.25889579
O       -1.31614744      -1.69094149       1.12449821
O       -1.57300144       2.54216751      -1.33125579
O        0.64588456      -2.63360449       1.84522821
C       -0.13921844      -1.80256549       1.02333721
C       -1.85409544       1.75056451      -0.47130679
O       -1.04800244       0.72567251       0.01942121
H       -0.00056444      -2.99523949       2.46603221
H        2.19587856      -2.45227149      -0.20770079
H        0.93908056       2.13988551      -1.42099479
H        3.78160456      -0.89791549      -1.42521079
H        3.20483456       1.49386151      -1.49664579
H       -3.81454744       2.36619651       0.08366521
H       -3.34455144       0.86611851       0.88081721
H       -2.42995444       2.25151051       1.23666721
