21
Properties=species:S:1:pos:R:3 -405687.25550693384=T pbc="F F F"
C        1.77448393      -1.11270351      -0.43302956
C        1.10827693       1.30560649      -1.65701856
C        2.58044693      -0.62438351      -1.56377956
C        2.24355393       0.58554349      -2.15552556
C       -2.89209307       1.46491449       0.85145644
C        0.71471693      -0.42239451       0.05807644
C        0.32519593       0.74481049      -0.68409956
O        0.46461393      -2.22755851       1.65459844
O       -2.28375807      -0.40030051      -0.39770956
O       -0.33993307      -0.24175751       2.29775244
C        0.20538893      -1.06153351       1.35324844
C       -2.07533407       0.71564449      -0.12774056
O       -0.80149407       1.43098249      -0.28256656
H       -0.39568807      -0.78236851       3.12343844
H        2.28316193      -1.93436051       0.25259144
H        0.76468993       2.20646049      -2.20016856
H        3.35779693      -1.27990551      -1.95979056
H        2.79902293       1.03818049      -2.91570556
H       -2.45063007       1.00390449       1.76466044
H       -2.85061707       2.54746849       1.04515344
H       -3.96570507       1.03538949       0.85448544
