21
Properties=species:S:1:pos:R:3 -405686.1108970076=T pbc="F F F"
C        1.85528300      -1.12370646      -0.49452105
C        1.08056000       1.41731754      -1.43115205
C        2.40788100      -0.53033546      -1.67725505
C        2.00258700       0.69735254      -2.15081505
C       -3.18513500       1.68376154       0.19276095
C        0.91759600      -0.44977146       0.20548695
C        0.42967600       0.74324654      -0.28738005
O        0.59195900      -2.32736246       1.77190995
O       -2.03852600      -0.36302446      -0.64750005
O       -0.56111900      -0.42660846       2.24937095
C        0.33140700      -1.17915446       1.49459895
C       -1.94859700       0.75368054      -0.20998605
O       -0.74266700       1.30959254       0.13115295
H       -0.53399800      -1.02342246       2.98673895
H        2.26934600      -2.10720446      -0.12572205
H        0.65015000       2.24646754      -1.87348905
H        3.10262800      -1.06755346      -2.27062705
H        2.36311400       0.98225454      -3.20123905
H       -2.94839300       2.75019854       0.69452495
H       -3.71757400       1.85018054      -0.71221505
H       -3.86771700       1.09268054       0.76926895
