21
Properties=species:S:1:pos:R:3 -405682.06357944047=T pbc="F F F"
C        1.89029964      -1.09886275      -0.27334868
C        0.85544864       1.18336525      -1.43431268
C        2.46857264      -0.70741875      -1.46513968
C        1.99849964       0.50819225      -2.00839368
C       -3.12080936       1.06110025       0.55729432
C        0.81713764      -0.57107975       0.27448132
C        0.26667964       0.68454925      -0.29111868
O        0.68468964      -2.40403275       1.86613232
O       -2.08177336       0.76091625      -1.64762068
O       -0.30498736      -0.43812575       2.36337432
C        0.47328064      -1.22719475       1.54449732
C       -2.06205436       1.01654325      -0.52228368
O       -0.89121536       1.27478725       0.18120932
H       -0.50878536      -0.89212375       3.18651732
H        2.40536064      -2.00982275       0.07110832
H        0.50479464       2.15906925      -1.82243868
H        3.36012664      -1.21884075      -1.92109268
H        2.70823064       1.12806825      -2.67715168
H       -3.03057136       0.33865125       1.34878532
H       -2.96517036       1.97568525       1.05451332
H       -4.02709436       1.20712825      -0.00980268
