21
Properties=species:S:1:pos:R:3 -405697.0641372565=T pbc="F F F"
C        2.06057840      -0.97806031      -0.32946897
C        0.75250140       1.02019769      -1.78318097
C        2.65988040      -0.52210431      -1.50985897
C        2.04477540       0.50291569      -2.24766797
C       -2.99760560       1.67159569       0.81793303
C        0.88689540      -0.49595431       0.13645403
C        0.24294540       0.53022269      -0.63994997
O        0.59997440      -2.28528331       1.73848103
O       -2.42401060      -0.07034931      -0.72947497
O       -0.29799360      -0.31922031       2.22201503
C        0.37804940      -1.14196431       1.39858903
C       -2.05754860       0.85388969      -0.06159897
O       -0.75462260       1.31030569       0.00727303
H       -0.59617760      -0.90871831       2.91495603
H        2.47502940      -1.70015331       0.28569703
H        0.05434740       1.66570269      -2.32042797
H        3.50185240      -1.02309131      -1.97822997
H        2.56509540       1.01455069      -3.05026797
H       -3.99050360       1.31209069       0.54036403
H       -2.66058660       1.47073269       1.81969203
H       -2.97022060       2.67061769       0.62606903
