21
Properties=species:S:1:pos:R:3 -405683.60836560663=T pbc="F F F"
C        1.93991617      -1.09751735      -0.34017048
C        1.09622117       1.22814865      -1.49810848
C        2.77916017      -0.44456735      -1.31906148
C        2.32258817       0.62817065      -1.97190948
C       -3.03687483       1.52339365       0.49219852
C        0.75997217      -0.57861035       0.22415052
C        0.32237417       0.63068665      -0.52421048
O       -0.91159783      -0.68851335       2.00947052
O       -2.39764883      -0.11046735      -1.15207948
O        0.96666817      -1.97195735       2.17379652
C        0.14922217      -1.10654635       1.55157452
C       -2.14378383       0.84236565      -0.40891848
O       -0.83629983       1.36830065      -0.10598048
H        0.59650817      -2.22719135       3.04518452
H        2.42354417      -2.07697535      -0.19656348
H        0.62317517       2.20366465      -1.85428748
H        3.70286517      -0.91201035      -1.57146348
H        2.92294417       1.07371565      -2.83394248
H       -2.94505483       2.53548265       0.19160252
H       -4.00506083       0.96911065       0.38234152
H       -2.74308583       1.34024265       1.59189852
