21
Properties=species:S:1:pos:R:3 -405690.8587106657=T pbc="F F F"
C        2.12269945      -1.07908160      -0.14867544
C        1.00934045       0.95818540      -1.62763944
C        2.82172145      -0.53490160      -1.21864144
C        2.17291245       0.41455040      -2.02446544
C       -3.10248855       1.33808240       0.71963256
C        0.83856545      -0.59518160       0.21740156
C        0.34919445       0.48103540      -0.47510244
O       -1.02112955      -1.12190060       1.52675756
O       -2.45239955       0.48656940      -1.41161444
O        1.01024845      -1.53635460       2.39227456
C        0.20861545      -0.96355460       1.49741856
C       -2.12113355       0.97323940      -0.31630644
O       -0.74965355       1.28249140       0.04190356
H        0.39235745      -1.73113960       3.07717356
H        2.53681045      -1.87076260       0.51639056
H        0.60872945       1.78478240      -2.18108344
H        3.69468345      -0.97682760      -1.59311544
H        2.54690245       0.71097640      -2.99609944
H       -2.80156355       2.32887440       1.07764656
H       -4.09667055       1.47354640       0.37957856
H       -3.08219255       0.57668840       1.46188556
