21
Properties=species:S:1:pos:R:3 -405675.1089568535=T pbc="F F F"
C        1.51799419      -1.49990454      -0.87559005
C        0.85929719       1.06821046      -1.63377505
C        2.44572119      -0.75718654      -1.63590305
C        2.13931119       0.50957746      -2.01440505
C       -2.72666781       2.46472346       0.68912295
C        0.37980419      -0.96792654      -0.31723405
C        0.01314519       0.36392246      -0.74944005
O       -0.81777181      -1.24891754       1.91275495
O       -0.29752381       2.21344246       1.41242195
O       -0.06290681      -3.20481554       0.75021095
C       -0.20214281      -1.79646654       0.98590595
C       -1.28029881       1.88539746       0.75532495
O       -1.12852381       1.04802446      -0.24798505
H       -0.39612681      -3.68521754       1.48493495
H        1.75644519      -2.56425454      -0.59670905
H        0.57242419       2.02383346      -2.04217705
H        3.43870919      -1.02824554      -1.93651505
H        2.86372019       1.11965046      -2.57285405
H       -3.05087881       2.05950346      -0.19850605
H       -3.27923881       2.28372546       1.60685995
H       -2.75646681       3.58732846       0.61637895
