21
Properties=species:S:1:pos:R:3 -405681.51358832634=T pbc="F F F"
C        1.92679088      -1.33375136      -0.45719108
C        0.94338788       1.17766064      -1.44713808
C        2.59201788      -0.67833936      -1.47637008
C        1.98143088       0.54509164      -2.01889808
C       -3.26618812       1.17193564       0.53013492
C        0.85346088      -0.63117236       0.17527092
C        0.35057588       0.61143064      -0.29861408
O        0.84250788      -2.19890836       1.99179692
O       -2.17598212       0.86174864      -1.59209608
O       -0.52129112      -0.49543936       2.31772592
C        0.45364188      -1.11989236       1.60758192
C       -2.03262712       1.08527764      -0.42893708
O       -0.86365512       1.05698664       0.23706892
H       -0.60335712      -1.20295236       3.03961592
H        2.10097888      -2.41018436      -0.14118208
H        0.74856788       2.21159364      -1.78398208
H        3.62586088      -0.84356436      -1.92531308
H        2.57255588       1.15914964      -2.82807308
H       -3.15169712       0.39615664       1.32656592
H       -3.33539812       2.17318964       1.00468292
H       -4.08981312       0.96442364      -0.16774708
