21
Properties=species:S:1:pos:R:3 -405685.679038883=T pbc="F F F"
C        1.74422224      -1.53254276      -0.63062550
C        0.76855324       1.00430124      -1.70101550
C        2.49059224      -0.85600476      -1.56023350
C        1.93281524       0.37798724      -2.09091950
C       -2.63867176       2.44656224       1.00252050
C        0.45085324      -0.98084576      -0.18303150
C        0.03851524       0.32311924      -0.63866450
O       -0.99143776      -1.24455876       1.81828650
O       -0.21834176       2.33788224       1.17276650
O        0.08415324      -3.05937376       0.73681350
C       -0.33614876      -1.70063276       0.89474750
C       -1.22572476       1.93053524       0.66791250
O       -1.23541676       1.00132424      -0.39455450
H       -0.44630176      -3.50517676       1.39886050
H        2.11032724      -2.51789976      -0.36695550
H        0.60726124       2.01242824      -2.10873350
H        3.46760924      -1.32521076      -1.94622150
H        2.42684224       1.00065724      -2.80485550
H       -2.76936876       2.96386124       2.00352850
H       -3.13642476       3.10789024       0.31457850
H       -3.18807476       1.51893624       1.08444950
