21
Properties=species:S:1:pos:R:3 -405677.9065936779=T pbc="F F F"
C        2.06839178      -1.01076086      -0.10452233
C        0.95864478       1.01258714      -1.65078333
C        2.75521478      -0.54989586      -1.19544133
C        2.19182678       0.47551214      -2.01830833
C       -3.13410222       1.48353114       0.55776367
C        0.85547478      -0.36548986       0.26215667
C        0.25961778       0.46079614      -0.54526433
O       -1.04120922      -0.87588786       1.69934267
O       -2.27599522       0.17798714      -1.23714633
O        1.13140978      -1.81173786       2.08673167
C        0.13607478      -1.01177486       1.46255267
C       -2.12195022       0.88869014      -0.30200733
O       -0.79001422       1.31782114       0.15162967
H        0.61956978      -2.22970886       2.82534267
H        2.41019278      -1.82729786       0.56765667
H        0.50946978       1.90457814      -2.01636533
H        3.61993978      -1.04278886      -1.48249933
H        2.68511078       0.88119914      -2.89406733
H       -3.30198922       2.50686414       0.10653567
H       -3.89404622       0.74101814       0.54804067
H       -2.68050322       1.51167414       1.56254067
