21
Properties=species:S:1:pos:R:3 -405670.4153730468=T pbc="F F F"
C        2.03171401      -1.23044039      -0.17114963
C        1.55801601       1.26752561      -0.69508263
C        3.11243501      -0.50538939      -0.76656463
C        2.86314601       0.84059661      -0.87907963
C       -2.94042999       2.00401661       0.82535537
C        0.75248901      -0.74346939       0.05173037
C        0.46458701       0.60967461      -0.24634363
O       -1.42778299      -1.23446439       0.91691937
O       -2.21065399       0.93882561      -1.11056963
O       -0.00789499      -2.99772939       0.66561937
C       -0.38468199      -1.63549539       0.56499637
C       -1.89114499       1.47268161      -0.05002063
O       -0.57801799       1.51712761       0.43064737
H       -0.75692899      -3.57161839       0.79210537
H        2.20865401      -2.27318439       0.07998237
H        1.44951801       2.36429261      -0.68264263
H        4.12881701      -0.83299739      -0.64108263
H        3.58389101       1.67992161      -1.08792863
H       -3.25683099       1.15141261       1.58150437
H       -2.73961199       2.62597661       1.71243837
H       -3.84896599       2.28378561       0.18706237
