21
Properties=species:S:1:pos:R:3 -405675.69207873=T pbc="F F F"
C        1.66580661      -1.38245806      -0.67519663
C        1.59403361       1.44724594      -0.37831663
C        2.89276461      -0.59376306      -0.92639163
C        2.89103761       0.77333594      -0.67310463
C       -2.93976939       2.25645994       0.49146837
C        0.63275561      -0.71955206       0.01142837
C        0.43751261       0.74898094      -0.02239963
O       -1.46974439      -1.38268506       1.09723337
O       -1.89935539       0.78994394      -1.24336763
O        0.27414061      -2.86093606       0.84814837
C       -0.34822039      -1.61759406       0.73149137
C       -1.86106539       1.41005494      -0.24438363
O       -0.66867439       1.45556794       0.57990737
H       -0.47166239      -3.42512806       1.25620537
H        1.48405961      -2.43464906      -0.93564263
H        1.69899261       2.58912194      -0.39952963
H        3.75422961      -1.05441506      -1.34994863
H        3.89343861       1.26410794      -0.60923563
H       -3.45640139       2.59189994      -0.48424263
H       -3.51410039       1.51543994       0.97205337
H       -2.77264439       3.00895094       1.27314037
