21
Properties=species:S:1:pos:R:3 -405690.2063482583=T pbc="F F F"
C        2.12823029      -0.98013078      -0.31545779
C        0.94911429       1.09030322      -1.76361779
C        2.79138529      -0.38839878      -1.36627879
C        2.13227729       0.52510022      -2.14179979
C       -2.95715871       1.62956222       0.61838721
C        0.87148629      -0.48231278       0.09880021
C        0.34899229       0.70485622      -0.55121679
O        0.17634129      -2.27025678       1.46375921
O       -2.29600471      -0.39691478      -0.25583979
O       -0.41641671      -0.30087678       2.17738921
C        0.17745929      -1.05204878       1.24264421
C       -1.96540871       0.68710922       0.09358021
O       -0.75813271       1.36832022      -0.20128579
H       -0.95964171      -0.77856478       2.77141221
H        2.58034029      -1.74417678       0.22959321
H        0.48301929       1.97163022      -2.27265679
H        3.74450829      -0.84976078      -1.67576679
H        2.69646229       0.79243322      -3.01592579
H       -2.46798771       2.61898522       0.73180821
H       -3.78658871       1.59337022      -0.16600179
H       -3.30802571       1.13801322       1.50369221
