21
Properties=species:S:1:pos:R:3 -405690.43266232975=T pbc="F F F"
C        2.00923381      -1.23611212      -0.37559924
C        1.58972781       1.50635288      -0.67484124
C        2.98045881      -0.50448512      -0.96466424
C        2.78320081       0.90466388      -1.12709724
C       -3.05460319       1.98793388       0.08510776
C        0.74128381      -0.65013612      -0.03148524
C        0.54408281       0.75189888      -0.17650424
O       -0.55640919      -0.78893712       1.96844376
O       -2.19979119      -0.18016912      -0.40805524
O       -0.58986519      -2.62223512       0.43802776
C       -0.31149519      -1.30229912       0.87507876
C       -1.91871719       0.98988788      -0.10459224
O       -0.65105019       1.48283788       0.04298576
H       -1.19376019      -2.94110912       1.15756776
H        2.05380081      -2.37445712      -0.20905624
H        1.37615381       2.61441188      -0.94060824
H        3.85139081      -1.04078812      -1.39540724
H        3.59690781       1.49713888      -1.46437724
H       -3.06694419       2.78047488      -0.65922524
H       -3.88384319       1.33891888      -0.21959024
H       -3.15495119       2.44448688       1.03490676
