21
Properties=species:S:1:pos:R:3 -405681.93803902774=T pbc="F F F"
C        1.73347912      -1.26955822      -0.37150970
C        1.57884712       1.48558778      -0.52969470
C        2.80691112      -0.51467922      -0.76856570
C        2.77155212       0.82702178      -0.83633770
C       -2.79688288       1.94449278       0.60240930
C        0.52445612      -0.66234222       0.02957830
C        0.49094512       0.70394178       0.08861330
O       -1.54294388      -1.50453522       1.29179130
O       -1.67908088       0.99760678      -1.48035570
O        0.12731412      -2.87948022       0.73258530
C       -0.50262888      -1.59483122       0.68536630
C       -1.73094888       1.42869378      -0.29060570
O       -0.60031088       1.43218378       0.51370530
H       -0.64849288      -3.43313022       1.03779730
H        1.79173512      -2.35865222      -0.37794170
H        1.37991312       2.44780878      -0.81071070
H        3.78825112      -0.98503622      -1.11249270
H        3.61496612       1.29434178      -1.42932370
H       -2.81062188       1.29640578       1.46482030
H       -2.66316488       2.97257378       0.94087730
H       -3.86439488       1.81952778       0.05947030
