21
Properties=species:S:1:pos:R:3 -405680.69578845514=T pbc="F F F"
C        2.19954563      -0.68263756      -0.17533858
C        0.47214963       0.61076344      -1.82263358
C        2.63709263      -0.43784256      -1.51351258
C        1.72992163       0.24111844      -2.34364358
C       -3.33577037       1.97126644       0.26839142
C        0.99325863      -0.42055656       0.37169942
C        0.11114463       0.39420944      -0.47171158
O        0.74879063      -2.39571356       1.82019142
O       -2.66628037       0.21422944      -1.26747458
O        0.57038763      -0.37286256       2.79913942
C        0.83273163      -1.16704756       1.71772542
C       -2.32512037       1.02265944      -0.45038258
O       -1.03999437       1.06265144       0.07799842
H        0.47922563      -0.98754856       3.60274142
H        2.87303063      -1.20765356       0.47253042
H        0.00062563       1.45135144      -2.30251558
H        3.73722063      -0.59255456      -1.61451558
H        1.93947163       0.35288244      -3.40208958
H       -2.73931437       2.74993844       0.83258642
H       -4.04611137       2.39117844      -0.40775758
H       -3.82978037       1.27622844       1.00585042
