21
Properties=species:S:1:pos:R:3 -405684.53787786886=T pbc="F F F"
C        1.71690204      -1.34478874      -0.53688547
C        1.68206204       1.47603726      -0.25011147
C        2.79823504      -0.56075574      -0.98395347
C        2.85596904       0.79392126      -0.69398747
C       -2.91204096       1.51366226       0.57572753
C        0.58943704      -0.69201474      -0.00921447
C        0.52551804       0.73465726       0.06698053
O       -1.46923696      -1.17675874       1.28125453
O       -1.59935296       1.12162126      -1.42838747
O       -0.22266596      -2.84022774       0.51589253
C       -0.43726496      -1.43746374       0.70425053
C       -1.71552096       1.32929826      -0.27507347
O       -0.59857696       1.42481626       0.66275453
H       -0.53033696      -3.23250874       1.36170453
H        1.63934104      -2.37985174      -0.81829847
H        1.78144304       2.59135326       0.03351553
H        3.77373004      -1.05000574      -1.28911647
H        3.74887304       1.26188726      -1.14757547
H       -3.61786196       1.94073626      -0.05688047
H       -3.22854896       0.46818626       0.75245253
H       -2.59624396       2.15712026       1.48987553
