21
Properties=species:S:1:pos:R:3 -405688.5304511819=T pbc="F F F"
C        1.97944011      -1.27899915      -0.41316684
C        0.61048911       0.94164385      -1.45722684
C        2.50168411      -0.63547615      -1.52711084
C        1.74767411       0.40790785      -2.08050984
C       -3.31159589       1.80801885       0.44824316
C        0.85262311      -0.80508215       0.24452016
C        0.11085511       0.28063885      -0.32209784
O        1.26069511      -2.35106515       2.04801216
O       -1.91303989       1.68553085      -1.66188284
O       -0.39113589      -0.91608315       2.35762216
C        0.65053811      -1.42090315       1.60801116
C       -2.05129089       1.41751685      -0.43686184
O       -1.05162889       0.80887385       0.31622216
H       -0.43854589      -1.25320815       3.22776116
H        2.61506211      -2.15263515      -0.08854984
H       -0.04076389       1.73866085      -1.91361684
H        3.37748911      -1.00640415      -2.00830184
H        1.83872811       0.75235085      -3.13259884
H       -3.88234189       0.88627785       0.74832216
H       -3.08191089       2.21870785       1.45978116
H       -3.93387389       2.56370585       0.01085516
