21
Properties=species:S:1:pos:R:3 -405681.9889188293=T pbc="F F F"
C        1.74914263      -1.47252350      -0.82325140
C        1.28067263       1.37854650      -0.55057640
C        2.53793263      -0.50153150      -1.42577440
C        2.37882063       0.85362850      -1.14032140
C       -2.80630637       2.18608150       0.61953060
C        0.67016563      -0.94011950       0.06049660
C        0.43782163       0.48923250       0.08115660
O       -1.05049537      -2.63266150       0.46763160
O       -1.44247137       1.56590150      -1.38888040
O       -0.10515137      -1.54239150       2.15051660
C       -0.20496037      -1.87561950       0.87981060
C       -1.69067037       1.54467550      -0.18784740
O       -0.64565237       1.00373250       0.63661160
H       -0.86856937      -2.07357350       2.54785760
H        2.17123563      -2.46847150      -0.73062640
H        1.12118363       2.47854150      -0.58094740
H        3.34969563      -0.73488050      -2.06743840
H        2.99296163       1.57769950      -1.77740440
H       -3.42661037       1.39494950       1.10849660
H       -2.25057637       2.69286450       1.48584760
H       -3.43421337       2.81847450       0.01097760
