21
Properties=species:S:1:pos:R:3 -405698.90014908364=T pbc="F F F"
C        1.86265757      -1.16402999      -0.42415019
C        0.75903857       1.13186301      -1.51741319
C        2.36076157      -0.66478399      -1.67411719
C        1.86266057       0.52977301      -2.19846019
C       -3.16037543       1.57187301       0.29729881
C        0.80133157      -0.56088299       0.30845781
C        0.23481657       0.58584401      -0.33781319
O        0.84487657      -2.27796899       1.80465181
O       -2.01993943       0.04656801      -1.11499319
O       -0.22186543      -0.28743399       2.41726781
C        0.45549057      -1.16204899       1.59413781
C       -1.98911543       0.95686901      -0.30444919
O       -0.81266043       1.33101301       0.24083981
H       -0.70757143      -0.90981999       3.05951781
H        2.38455157      -1.96734999       0.05226881
H        0.34857957       2.09749001      -1.89296919
H        3.15507357      -1.22376399      -2.11908119
H        2.25294557       1.10432401      -3.00183219
H       -3.47655343       0.93880301       1.20854181
H       -2.86564043       2.62067501       0.65432481
H       -3.97384043       1.61161101      -0.41073119
