21
Properties=species:S:1:pos:R:3 -405690.11773792625=T pbc="F F F"
C        1.91307629      -1.11828312      -0.32838731
C        1.27705929       1.49224888      -1.31279031
C        2.77669329      -0.52944012      -1.24206231
C        2.42739529       0.72854488      -1.70698131
C       -3.10596371       1.40221388       0.44797769
C        0.67525129      -0.51534312       0.10791769
C        0.36646229       0.80813988      -0.47100431
O       -0.72467271      -0.31508512       1.93062269
O       -2.13164271      -0.40910412      -0.78232431
O        0.41277629      -2.27984212       1.69437169
C       -0.04346671      -1.04736412       1.25405669
C       -1.99226571       0.63686488      -0.17289531
O       -0.76608671       1.41954888      -0.18800631
H       -0.06679771      -2.18573512       2.61775669
H        2.23963529      -2.07011212      -0.06965031
H        1.06620729       2.47097188      -1.81837631
H        3.54280029      -1.20291912      -1.59721331
H        3.18519929       1.24142188      -2.33640631
H       -2.71433371       2.31574488       1.00193269
H       -3.78125271       1.72869888      -0.31545331
H       -3.66316671       0.73090588       1.15696069
