21
Properties=species:S:1:pos:R:3 -405671.10169457155=T pbc="F F F"
C        1.67789296      -1.36578597      -0.62590173
C        1.42364996       1.29124303      -0.71385473
C        2.66054196      -0.67527297      -1.36667573
C        2.55167596       0.74667003      -1.36151273
C       -2.70723704       2.02775103       0.98427727
C        0.56980196      -0.84600797       0.15544327
C        0.53009496       0.55270403      -0.00262973
O       -0.58067504      -2.80935797       0.21710227
O       -1.77634504       1.47673603      -1.33844673
O       -0.69143904      -1.33403497       2.14671027
C       -0.29448804      -1.81012297       0.77022427
C       -1.56938504       1.63255503      -0.12518973
O       -0.54730004       1.20985803       0.65877227
H       -1.51579204      -1.93545897       2.28958127
H        1.92633196      -2.41274497      -0.55441473
H        1.19659696       2.37129403      -0.93983673
H        3.51379096      -1.09594297      -1.88002073
H        3.22953296       1.50536703      -1.82838273
H       -2.58031904       1.32938203       1.75355527
H       -2.66827504       3.06999503       1.29467427
H       -3.69394404       1.78852903       0.35321227
