21
Properties=species:S:1:pos:R:3 -405690.78381772677=T pbc="F F F"
C        1.94054436      -1.27081231      -0.39877874
C        0.81305936       1.25928669      -1.32442574
C        2.44417736      -0.59242331      -1.53639974
C        1.83781736       0.60688969      -1.98848774
C       -3.08819964       1.79155769       0.40640226
C        0.83598736      -0.63533431       0.21392126
C        0.23732236       0.54406369      -0.25224974
O        1.39874536      -1.83601231       2.20478526
O       -2.08770164       0.96491369      -1.56665674
O       -0.85012864      -1.43486431       1.85132726
C        0.42318536      -1.31920231       1.48505326
C       -1.97231064       1.17242369      -0.35046874
O       -0.88026064       0.88782569       0.45575426
H       -0.92572064      -1.82826631       2.72281026
H        2.37248036      -2.20655931      -0.07831974
H        0.30934636       2.17431469      -1.63382574
H        3.32244336      -1.09560331      -2.01396674
H        2.11772136       1.13459469      -2.87596374
H       -4.04994964       1.59044269      -0.11400274
H       -3.23400964       1.33148569       1.36501026
H       -2.85108864       2.87408469       0.48187426
