21
Properties=species:S:1:pos:R:3 -405692.3802902076=T pbc="F F F"
C        1.97589819      -1.15723652      -0.42684108
C        1.16454519       1.25607548      -1.49639808
C        2.62065119      -0.56393152      -1.49841708
C        2.25316619       0.64528948      -2.08209908
C       -3.05660681       1.23365548       0.98747592
C        0.80726419      -0.53976352       0.08557192
C        0.32433119       0.65726748      -0.50631208
O        0.29843119      -2.26352852       1.77104792
O       -2.50081581       0.03299948      -1.06673008
O       -0.06923881      -0.06830152       2.22875692
C        0.25139819      -1.13102452       1.34809392
C       -2.12970281       0.69628748      -0.16273508
O       -0.85224081       1.25418548      -0.13287308
H       -0.00567881      -0.46335452       3.12395192
H        2.20376819      -2.17779252      -0.11794808
H        0.86632319       2.29340648      -1.78878108
H        3.52018619      -0.99971452      -1.81723908
H        2.74972319       1.02581348      -2.92547208
H       -3.47156981       0.32269748       1.51162692
H       -2.52052081       1.81222948       1.74643892
H       -3.90323581       1.70873148       0.49657192
