21
Properties=species:S:1:pos:R:3 -405691.44036634604=T pbc="F F F"
C        1.73154365      -1.21652570      -0.58782785
C        1.59198365       1.59501830      -0.50762885
C        2.83902265      -0.42536970      -0.98005485
C        2.84118665       0.95398730      -0.88534285
C       -2.72412635       2.17549430       0.33040715
C        0.52166765      -0.67978370      -0.04857785
C        0.49410065       0.74773330      -0.12647685
O       -1.25557335      -1.08911870       1.58730615
O       -1.91345235       0.10094930      -0.81397685
O       -0.14263635      -2.78721070       0.64626015
C       -0.42832335      -1.46022370       0.73505915
C       -1.81873335       1.05455630      -0.11370985
O       -0.54729035       1.40388930       0.30337615
H       -0.72998435      -3.40355770       1.14751615
H        1.74276565      -2.29954970      -0.79654185
H        1.33387365       2.70341330      -0.66768485
H        3.78501565      -0.93696670      -1.15549785
H        3.74082565       1.59865630      -1.10480385
H       -3.79796335       1.93430830       0.03436715
H       -2.60511535       2.31094730       1.40938515
H       -2.33454635       3.04713230      -0.20512385
