21
Properties=species:S:1:pos:R:3 -405694.66558222467=T pbc="F F F"
C        1.47387795      -1.55930590      -0.95531091
C        0.96308595       1.08484910      -1.68427591
C        2.20752395      -0.95873290      -1.93896591
C        1.93101395       0.33456410      -2.39903391
C       -2.38672905       2.23653310       0.99960809
C        0.42814395      -0.90331490      -0.36333791
C        0.11838395       0.39444210      -0.73110091
O       -1.53271905      -1.35068890       1.03544909
O       -0.37986605       1.35167010       1.76609409
O        0.50747995      -1.87875890       1.80535909
C       -0.34228705      -1.38455190       0.80786509
C       -1.14476005       1.51909910       0.88606009
O       -0.99998005       1.09835910      -0.41544391
H       -0.14347405      -2.28127590       2.40834609
H        1.73287695      -2.59711290      -0.55091991
H        0.56108095       2.07589910      -1.97975391
H        3.06270795      -1.57119290      -2.31572391
H        2.61494495       0.70480710      -3.10072991
H       -2.51509005       2.86065310       1.90625709
H       -2.64147805       2.60009310      -0.02590991
H       -3.17751905       1.48623010       1.17773409
