21
Properties=species:S:1:pos:R:3 -405685.97110178415=T pbc="F F F"
C        1.95194200      -1.25080970      -0.24320344
C        1.26882800       1.46582730      -1.04869944
C        2.77966200      -0.44403970      -1.01719644
C        2.39575400       0.79130530      -1.48672444
C       -2.82195400       2.06838230       0.36504656
C        0.82064700      -0.66580570       0.23920456
C        0.47835200       0.65630230      -0.19680344
O       -1.06561000      -0.97592070       1.92222856
O       -1.98640400       0.33138830      -1.19152644
O        0.02761400      -2.74860370       0.94539356
C       -0.21924700      -1.37521470       1.08902356
C       -1.82304400       1.11514030      -0.24634944
O       -0.65151600       1.34799930       0.32870456
H       -0.47376700      -3.21629870       1.69828856
H        2.25006100      -2.29768670      -0.15097644
H        1.14899000       2.50439730      -1.46536144
H        3.81509100      -0.71405970      -1.27146044
H        3.13694900       1.28469630      -2.03875744
H       -3.70579500       1.95141030      -0.25001644
H       -2.94872900       1.66756430       1.34529356
H       -2.40452100       3.16471530       0.62659256
