21
Properties=species:S:1:pos:R:3 -405681.86936389847=T pbc="F F F"
C        1.85644219      -1.27495841      -0.53206612
C        1.48418419       1.46654559      -0.11069312
C        2.76785819      -0.31094041      -1.01033112
C        2.70742019       1.05049459      -0.70358012
C       -2.68914481       2.33438259       0.36055888
C        0.65711719      -0.81982941       0.05392788
C        0.44790919       0.55297459       0.18967188
O       -1.45731681      -1.44748041       1.13314688
O       -1.70692781       0.98847259      -1.31827012
O       -0.15605281      -3.16807541       0.57321088
C       -0.35961981      -1.72129041       0.58298888
C       -1.69449881       1.36808359      -0.20192812
O       -0.60457481       1.28590359       0.70429388
H       -0.88142481      -3.41396941       1.21255188
H        1.92452619      -2.35125641      -0.77086112
H        1.25098019       2.47266459       0.06606388
H        3.52023919      -0.66562441      -1.68186412
H        3.61316119       1.69096559      -1.00375912
H       -3.78385281       2.23574859      -0.09941612
H       -2.77887581       2.47768159       1.45822688
H       -2.22378481       3.21094359      -0.18819612
