21
Properties=species:S:1:pos:R:3 -405688.5688261474=T pbc="F F F"
C        1.91529403      -1.18643541      -0.47318255
C        0.92095703       1.13090559      -1.52332055
C        2.53531703      -0.51413441      -1.51989555
C        1.99686503       0.56379159      -2.12609655
C       -3.06229597       1.61825759       0.42875545
C        0.82678803      -0.56940241       0.10654945
C        0.31765803       0.60349859      -0.39942555
O        0.57740203      -2.28584041       1.69610845
O       -2.21900697      -0.14072241      -0.83891355
O       -0.32565997      -0.22688541       2.26159045
C        0.36457103      -1.08773741       1.44982445
C       -1.97767197       0.77487759      -0.15163855
O       -0.79927097       1.32063959       0.17146445
H       -0.80435597      -0.77410841       2.93163045
H        2.33101303      -2.09924041      -0.04443755
H        0.69325403       2.17579159      -1.87772955
H        3.52742603      -0.64648441      -1.85173355
H        2.48891003       1.03376959      -2.95677955
H       -3.59385397       2.13453659      -0.36977955
H       -3.67062697       0.96001659       0.99087945
H       -2.75707897       2.48915859       1.06835145
