21
Properties=species:S:1:pos:R:3 -405684.94642218406=T pbc="F F F"
C        2.14661854      -0.88378437      -0.17298210
C        1.10140854       1.41247063      -1.37963710
C        2.86272454      -0.27049337      -1.22452510
C        2.33564154       0.89565663      -1.81565710
C       -3.25418446       1.45490963       0.18266990
C        0.86569854      -0.42503237       0.22406390
C        0.29675354       0.62988363      -0.56042510
O       -0.46655246      -0.41512337       2.23135090
O       -2.02971946      -0.52769137      -0.36209510
O        0.08433654      -2.34072937       1.19242590
C        0.10730754      -1.04538537       1.33577690
C       -1.99501746       0.62922763      -0.19908710
O       -0.84082446       1.28218763      -0.13631110
H       -0.55726146      -2.54975537       1.97082690
H        2.43197254      -1.92303037       0.11599490
H        0.72476054       2.41365963      -1.67495510
H        3.68792054      -0.88354237      -1.67832810
H        2.90199854       1.12801863      -2.77239710
H       -2.91614046       2.29385863       0.69720490
H       -3.75060146       1.86211563      -0.76731010
H       -4.08620846       0.87559663       0.66251490
