21
Properties=species:S:1:pos:R:3 -405692.7032448199=T pbc="F F F"
C        1.94664818      -1.01608421      -0.34144379
C        1.09530418       1.37872879      -1.40982179
C        2.80428918      -0.29054621      -1.15882079
C        2.38776718       0.82829379      -1.81232879
C       -3.18578382       1.42831779       0.45947621
C        0.79723518      -0.45699621       0.11491721
C        0.30837118       0.71506079      -0.46026379
O       -0.68866482      -0.45253121       2.10354221
O       -2.12035482      -0.43173321      -0.88891779
O        0.44988418      -2.30625421       1.57048221
C        0.16164018      -1.01215421       1.39424421
C       -2.00953982       0.65380179      -0.27199979
O       -0.82300982       1.30757479      -0.07363179
H       -0.03996782      -2.36372421       2.42513621
H        2.26298518      -1.93650521       0.07733721
H        0.68443418       2.29305679      -1.90372579
H        3.68600518      -0.89457421      -1.51691879
H        2.97297218       1.33313479      -2.64503779
H       -2.80528582       1.69282579       1.45702421
H       -3.42720882       2.42854879       0.16372721
H       -4.10096882       0.79748279       0.41707921
