21
Properties=species:S:1:pos:R:3 -405683.8689396996=T pbc="F F F"
C        1.98094496      -1.37137120      -0.12428308
C        1.31472896       1.37520580      -0.82256508
C        2.75921496      -0.57265120      -0.99176308
C        2.47731296       0.86769780      -1.23517308
C       -2.95413604       2.01246780       0.29534092
C        0.68066496      -0.72516220       0.24662592
C        0.44989796       0.61707180      -0.00534508
O       -1.23725404      -1.26026620       1.54083892
O       -1.83884504       1.29510180      -1.56349508
O        0.25927896      -2.89545720       1.06101992
C       -0.20035104      -1.59861720       0.99368992
C       -1.79853304       1.40393080      -0.36378008
O       -0.70503504       1.14591080       0.51825892
H       -0.43303104      -3.43899520       1.48363792
H        2.20226396      -2.35368220       0.25283592
H        1.17585496       2.38484780      -0.78030508
H        3.60761096      -1.01272820      -1.51017708
H        3.21045396       1.40524680      -1.87133308
H       -3.65134604       2.40709380      -0.35573008
H       -3.45595904       1.18990880       0.76356692
H       -2.83957404       2.71628880       1.21278792
