21
Properties=species:S:1:pos:R:3 -405689.94419876125=T pbc="F F F"
C        2.03053798      -1.15932476      -0.33512967
C        0.71057898       0.95854624      -1.61509267
C        2.45306498      -0.65757976      -1.61946367
C        1.85262898       0.38946924      -2.24567567
C       -3.18180402       1.80039024       0.60595233
C        0.98253798      -0.50875876       0.33064433
C        0.32136698       0.56832224      -0.31917967
O        1.28704698      -1.76293776       2.40470633
O       -2.30146802       0.59132624      -1.35558767
O       -0.84599902      -1.31095076       1.69513833
C        0.59338398      -1.21606676       1.61501433
C       -2.04746302       1.22159024      -0.30989767
O       -0.74574302       1.25072424       0.30970933
H       -0.96859502      -1.93337876       2.48374333
H        2.66395498      -1.99134076       0.18708633
H        0.30122298       1.77627524      -2.05096667
H        3.23146498      -1.30604176      -2.13144567
H        2.35690998       0.82434224      -3.10769967
H       -3.59909002       0.86514424       1.02886333
H       -2.91915802       2.40179024       1.49945633
H       -3.93688802       2.28443724      -0.02646267
