21
Properties=species:S:1:pos:R:3 -405692.444120252=T pbc="F F F"
C        1.96795023      -1.18048564      -0.52429809
C        0.70585223       1.04924636      -1.61131309
C        2.47743523      -0.66700164      -1.64835809
C        1.84828723       0.45668736      -2.17680609
C       -3.07275877       1.76845136       0.78053191
C        0.88768223      -0.63392364       0.19949491
C        0.26670423       0.53915436      -0.40545909
O        1.20029923      -1.41899564       2.45822791
O       -2.20910977       0.43902336      -1.14609809
O       -0.81066777      -1.41225164       1.55128891
C        0.50070123      -1.19911264       1.50158391
C       -2.02975077       0.98294036      -0.08546309
O       -0.67227877       1.33275436       0.24190591
H       -0.97931877      -1.71546664       2.49868191
H        2.43120823      -2.09409164      -0.17444809
H        0.25296423       1.96928936      -2.00485609
H        3.34911923      -1.14616864      -2.10691709
H        2.24313423       0.79747636      -3.17919409
H       -3.66765277       1.02626836       1.32182391
H       -2.49657377       2.43594536       1.56330991
H       -3.88117077       2.25379936       0.06898791
