21
Properties=species:S:1:pos:R:3 -405691.83715175034=T pbc="F F F"
C        1.90435625      -1.29957111      -0.18996483
C        1.45304425       1.42748489      -0.81381083
C        2.98177025      -0.48398211      -0.82104183
C        2.75908225       0.80953889      -1.19014083
C       -3.01062775       1.75004589       0.44362017
C        0.73569325      -0.66865911       0.17639417
C        0.53312225       0.79102089      -0.06001683
O       -1.27214375      -1.17798711       1.67457217
O       -1.89925175       0.74308589      -1.38555583
O       -0.11008475      -2.87083611       0.70584717
C       -0.32997975      -1.53641211       0.97015217
C       -1.82492875       1.27013989      -0.29338183
O       -0.60099175       1.55181589       0.39406017
H       -0.86606875      -3.29080911       1.10968917
H        2.10819025      -2.33786811      -0.03619983
H        1.19385825       2.47494789      -1.08107583
H        3.98676425      -0.89323111      -1.01920183
H        3.37995925       1.54836389      -1.77642983
H       -3.71185475       1.99960389      -0.30282483
H       -3.57779875       1.14024689       1.17746317
H       -2.82915475       2.67137589       1.05796317
