21
Properties=species:S:1:pos:R:3 -405695.49282580754=T pbc="F F F"
C        2.02535457      -1.14484394      -0.46030585
C        0.63663957       0.97205106      -1.68990685
C        2.40915157      -0.58219894      -1.65221985
C        1.71051457       0.41846606      -2.34968285
C       -3.02005743       1.54631906       0.57304215
C        0.89822957      -0.53241894       0.25487715
C        0.27510557       0.48807706      -0.45431285
O        0.81629157      -2.07199094       2.02006415
O       -2.26015043      -0.03926794      -1.17027185
O       -0.13832543      -0.14275094       2.39810915
C        0.50475457      -0.93486394       1.63117715
C       -2.10115143       0.82939206      -0.29851185
O       -0.82021343       1.17274006       0.18558315
H       -0.14077543      -0.64209394       3.23237815
H        2.60038557      -1.89578594       0.07338015
H        0.19989257       1.85713306      -2.10955185
H        3.41862857      -0.88708094      -2.04983985
H        1.97177457       0.74528506      -3.33057085
H       -3.09241543       1.03241506       1.56112215
H       -2.53324943       2.52876806       0.80481715
H       -4.04788243       1.80090106       0.26227215
