21
Properties=species:S:1:pos:R:3 -405677.0789605271=T pbc="F F F"
C        2.19667769      -1.18194499      -0.43109252
C        0.84513769       1.09796701      -1.51954852
C        2.63280069      -0.53632199      -1.69776452
C        2.00005969       0.52928701      -2.09904852
C       -3.01948631       2.07350201       0.60964048
C        0.99063769      -0.67898399       0.14163148
C        0.34034769       0.42573501      -0.42828252
O        1.10773169      -1.78768299       2.29367948
O       -2.60205331       0.24524701      -0.95156252
O       -0.86728431      -1.00620299       1.67608548
C        0.48045469      -1.24060099       1.45698748
C       -2.08012731       0.96314401      -0.09915352
O       -0.79999131       1.10576201       0.18446048
H       -1.03411331      -1.16463099       2.65224248
H        2.65904069      -2.04492399       0.09347848
H        0.18153469       1.80968501      -2.07171952
H        3.42724069      -1.01666099      -2.21802852
H        2.49456769       1.03321601      -2.96817752
H       -3.80716731       1.97099001      -0.14149452
H       -3.29477031       1.83690801       1.70483648
H       -2.67882131       3.18878901       0.54095348
