21
Properties=species:S:1:pos:R:3 -405689.4773968462=T pbc="F F F"
C        2.14402328      -1.07181231      -0.31855484
C        0.86722728       1.00254469      -1.63121284
C        2.60835328      -0.58318131      -1.59238284
C        1.93375428       0.43619169      -2.31841484
C       -3.06126972       1.36442069       0.81545116
C        0.96057228      -0.60839131       0.27745416
C        0.34348428       0.49108369      -0.40894284
O        1.05969228      -1.59386431       2.50613416
O       -2.34071672       0.77299569      -1.37338984
O       -0.94738272      -1.25064631       1.67640316
C        0.40233628      -1.19204631       1.59028316
C       -2.06694372       1.13648369      -0.25255484
O       -0.73546572       1.19178569       0.18179216
H       -1.19043872      -1.55452731       2.55776016
H        2.69911428      -1.90970531       0.15322216
H        0.48546628       1.93690769      -2.11577284
H        3.29840128      -1.32740731      -2.09128384
H        2.37896028       1.01321569      -3.11636684
H       -2.58017772       1.90417169       1.62122016
H       -3.70733772       1.92787369       0.20709616
H       -3.53868472       0.35876369       1.02456416
