21
Properties=species:S:1:pos:R:3 -405683.41895707574=T pbc="F F F"
C        2.11159979      -1.09439337      -0.29829347
C        0.74438679       0.82549863      -1.78717247
C        2.58282479      -0.82388437      -1.57960247
C        1.89158179       0.25064263      -2.29412347
C       -2.99314421       1.70866763       0.89321953
C        1.00209679      -0.41983137       0.28765553
C        0.24598979       0.46580863      -0.50272647
O        1.16086379      -1.03699937       2.57944853
O       -2.38603721       0.73503363      -1.30973947
O       -0.78929721      -1.73160937       1.52841253
C        0.44311079      -1.01659237       1.55808553
C       -2.11628721       1.05379763      -0.17267647
O       -0.82400821       1.17292963       0.21718653
H       -0.91764521      -2.26388037       2.39027553
H        2.80660779      -1.85873237       0.17869253
H        0.19742079       1.62904663      -2.30211047
H        3.47221779      -1.32758937      -1.94154447
H        2.14552079       0.57600363      -3.31335947
H       -2.89478121       1.12607963       1.85347353
H       -2.33821721       2.50993563       1.05034253
H       -4.00381221       1.96012663       0.61375153
