21
Properties=species:S:1:pos:R:3 -405689.4458484772=T pbc="F F F"
C        2.05886238      -1.25182069      -0.22717580
C        0.97742038       1.25367931      -1.20992680
C        2.69063338      -0.58370669      -1.23382680
C        2.11865138       0.63121831      -1.70304680
C       -3.23118962       1.57588631       0.21377520
C        0.85213038      -0.66649869       0.37108920
C        0.31978138       0.52272631      -0.15768280
O       -1.03225162      -1.29312269       1.84721220
O       -1.70549662       1.67327931      -1.66619080
O        0.78078938      -2.61723369       1.81774420
C        0.06610738      -1.44587469       1.37783820
C       -1.83895562       1.41048831      -0.48786380
O       -0.93167162       1.03466931       0.41667820
H        0.09534838      -3.11644669       2.40529320
H        2.37151438      -2.16929369       0.31304520
H        0.50207838       2.14359931      -1.56721680
H        3.50486038      -1.00591969      -1.75510880
H        2.49098138       1.19804631      -2.60112280
H       -3.65653962       2.58262031       0.16997020
H       -4.07117562       0.81437531      -0.24483580
H       -3.17976562       1.41766431       1.34216420
