21
Properties=species:S:1:pos:R:3 -405685.7310680365=T pbc="F F F"
C        2.01079515      -1.06274917      -0.32942711
C        0.95302915       1.16582083      -1.53097611
C        2.59623315      -0.58770117      -1.51104311
C        2.10021715       0.63131783      -2.19982211
C       -3.04947285       0.89449083       0.64447989
C        0.92718415      -0.47496317       0.30439289
C        0.36479715       0.63305783      -0.39796811
O        0.12314015      -2.29548517       1.75008489
O       -2.08250085       0.49671283      -1.44983711
O       -0.33183685      -0.23940117       2.41518889
C        0.24667715      -1.12530617       1.51289989
C       -1.98892185       0.84130283      -0.34903911
O       -0.72122985       1.23110483       0.25946889
H       -0.85289885      -0.92089817       2.86562589
H        2.52242215      -1.96136817       0.14039189
H        0.60886315       2.09397883      -1.94171511
H        3.59359515      -1.03943817      -1.82834811
H        2.36888015       1.15958583      -3.14301611
H       -3.19926485      -0.06035517       1.09973389
H       -2.78329485       1.67847183       1.35255689
H       -3.98771085       0.96081983       0.15958189
