21
Properties=species:S:1:pos:R:3 -405689.903645614=T pbc="F F F"
C        1.75697691      -1.02212396      -0.34482569
C        1.11238591       1.40676104      -1.38381469
C        2.52369491      -0.50123796      -1.36227569
C        2.19508491       0.75838104      -1.87341869
C       -3.16506809       1.34216504      -0.09113969
C        0.74052691      -0.36897296       0.31741731
C        0.32104491       0.76000004      -0.31213169
O       -0.22216709      -0.36629196       2.59041931
O       -1.83251909      -0.41712096      -0.90363469
O        0.25979891      -2.28556796       1.49859931
C        0.17796491      -0.95295096       1.54770931
C       -1.93658909       0.59756204      -0.31863969
O       -0.85672509       1.39424504      -0.04660069
H       -0.15780809      -2.53963496       2.32219331
H        2.03032691      -2.02729796       0.10216431
H        0.66397391       2.25145004      -1.90142369
H        3.26950991      -1.09304796      -1.87377469
H        2.61764091       1.24708404      -2.79431469
H       -3.99396109       1.03651704      -0.71656369
H       -3.58409009       1.24925404       0.92898031
H       -3.12768709       2.40811504      -0.38461669
