21
Properties=species:S:1:pos:R:3 -405689.0894292104=T pbc="F F F"
C        1.57934554      -1.40554025      -0.72359093
C        0.89003354       0.93374175      -1.59498993
C        2.40252554      -0.82961725      -1.68104293
C        1.99803554       0.38689075      -2.17281493
C       -2.42700046       2.09040675       1.33067807
C        0.42038854      -0.91620825      -0.23327693
C        0.06142854       0.34562075      -0.68419593
O       -1.61438746      -1.44450525       0.98459007
O       -0.07037846       2.26436075       1.19361707
O        0.30914954      -2.53049025       1.42913007
C       -0.41016546      -1.57113625       0.75176807
C       -1.12075046       1.84718675       0.75153307
O       -1.15627046       0.89452675      -0.37811493
H       -0.39288846      -3.09267225       1.89230507
H        1.79467654      -2.43944525      -0.40202893
H        0.64395254       1.99404575      -1.65761293
H        3.21426654      -1.45779325      -1.97158093
H        2.64141554       1.04710375      -2.81658993
H       -2.48394246       3.09685375       1.54245907
H       -3.18720246       1.86128275       0.58243707
H       -2.45727746       1.44883075       2.25516807
