21
Properties=species:S:1:pos:R:3 -405690.9219493645=T pbc="F F F"
C        1.84395031      -1.26623598      -0.44565957
C        1.66190631       1.42009802      -0.43734257
C        2.85742531      -0.57086698      -1.03693557
C        2.77682831       0.76521402      -0.94663257
C       -2.98456469       1.48849302       0.75280043
C        0.67569331      -0.66753498       0.15751043
C        0.60436131       0.73112402       0.15061743
O       -1.70210069      -1.25078098       0.63462243
O       -1.61230469       1.13935502      -1.37404457
O       -0.04899369      -2.67045298       1.09120143
C       -0.49139569      -1.48131498       0.62738043
C       -1.79775069       1.31574602      -0.19225557
O       -0.52269669       1.35632602       0.64146343
H       -0.83727969      -3.12420098       1.40850543
H        1.81805631      -2.39812998      -0.50583557
H        1.71104731       2.48327402      -0.33855657
H        3.70972031      -1.13139698      -1.33192657
H        3.52480431       1.38390002      -1.50494557
H       -3.88082469       1.19831302       0.29044243
H       -2.84489469       0.92371902       1.69722643
H       -2.80341369       2.63404202       0.84012043
