21
Properties=species:S:1:pos:R:3 -405685.9981405023=T pbc="F F F"
C        1.54431900      -1.40343522      -0.78244587
C        1.70555300       1.38389878      -0.68270887
C        2.58517300      -0.75724422      -1.41720687
C        2.71259200       0.60432878      -1.35382087
C       -2.57626200       2.37740978       1.18269213
C        0.62731600      -0.75527022       0.01071913
C        0.61120100       0.66232578      -0.00724787
O        0.10936900      -2.79080422       1.11006813
O       -2.10773000       1.03504778      -0.77866087
O       -1.57460800      -1.39293022       0.49097613
C       -0.23195000      -1.72072922       0.73043413
C       -1.66925100       1.57209678       0.20839413
O       -0.35957600       1.32857278       0.78092313
H       -2.23050100      -2.02887422       0.73893413
H        1.41116300      -2.48471422      -0.94595387
H        1.76201000       2.50036778      -0.68817287
H        3.18282100      -1.44033822      -2.04655587
H        3.56028800       1.12322078      -1.73761087
H       -2.61325600       1.97083178       2.24597313
H       -2.32188300       3.49613878       1.29184013
H       -3.54797400       2.37225478       0.83349513
