21
Properties=species:S:1:pos:R:3 -405688.71723779576=T pbc="F F F"
C        1.57905626      -1.63837032      -0.96228093
C        0.83437026       1.08199868      -1.37340493
C        2.40644326      -0.79079332      -1.62549393
C        2.06617326       0.52234368      -1.78194593
C       -2.59453974       2.23959868       1.26314807
C        0.52135526      -1.03542532      -0.23397493
C        0.10725626       0.33382768      -0.46940393
O       -1.10369674      -1.39210732       1.48389607
O       -0.40269774       2.99314168       0.48060407
O       -0.06750074      -3.20203832       0.72400407
C       -0.30077874      -1.90554632       0.63818407
C       -1.12534574       2.05915768       0.72582107
O       -0.99593174       0.77231568       0.23351407
H       -0.65650074      -3.58099932       1.35843707
H        1.78563026      -2.69485332      -0.75427793
H        0.63427226       2.11996168      -1.38177893
H        3.40181526      -1.18387032      -1.90192493
H        2.77807126       1.21628168      -2.18108593
H       -3.24999874       1.69101568       0.56840007
H       -2.73003474       1.89702268       2.28761007
H       -2.78058074       3.36659168       1.10643307
