21
Properties=species:S:1:pos:R:3 -405676.3459436468=T pbc="F F F"
C        2.27933199      -0.82691993      -0.00006151
C        0.64952299       0.78494307      -1.70580451
C        2.76574199      -0.30252593      -1.23069151
C        1.96541999       0.29432607      -2.17017051
C       -2.99345501       1.54551307       0.62667549
C        0.95334699      -0.60158993       0.31770949
C        0.25646199       0.42394807      -0.41853251
O       -1.03503301      -1.53760693       1.54799149
O       -2.32968801       0.97136107      -1.66324051
O        1.14767799      -1.51663993       2.56007249
C        0.16007199      -1.24480993       1.54047649
C       -2.05322001       1.09498607      -0.46340751
O       -0.79116501       1.03932007       0.21129349
H        0.87414299      -1.96947093       3.38547049
H        2.80539999      -1.55064993       0.59404549
H        0.15833399       1.33120607      -2.53619251
H        3.77956799      -0.76434793      -1.32258651
H        2.28911099       0.61518107      -3.16806751
H       -4.10974301       1.32051807       0.25049549
H       -2.68341801       1.03968807       1.57119949
H       -2.79850401       2.63438607       0.79035649
