21
Properties=species:S:1:pos:R:3 -405689.6205250387=T pbc="F F F"
C        1.90565598      -1.33240773      -0.29840589
C        1.26502698       1.34973627      -0.86199889
C        2.67252798      -0.56020873      -1.15659289
C        2.46580498       0.82603627      -1.32642589
C       -2.88856702       1.88255027       0.56911911
C        0.77126798      -0.81479273       0.31326711
C        0.43850398       0.52407027      -0.02429489
O       -1.52863902      -1.56473073       0.75972911
O       -1.71809402       1.43148727      -1.53802389
O        0.39107998      -2.50952373       1.85357611
C       -0.30108902      -1.61207173       0.97557111
C       -1.70868502       1.50369627      -0.34056389
O       -0.62737402       1.12952727       0.52909711
H       -0.30664902      -3.25317173       2.07063111
H        2.28305898      -2.30628173       0.09493211
H        0.86881498       2.34952227      -0.94573789
H        3.59572098      -1.02678973      -1.54992389
H        3.10738598       1.44339627      -1.82807989
H       -3.33699102       2.86217627       0.29159511
H       -3.58367402       1.03882227       0.39780711
H       -2.36436802       1.87383827       1.60967711
