21
Properties=species:S:1:pos:R:3 -405682.6711525294=T pbc="F F F"
C        2.14986218      -0.81309343      -0.03757348
C        1.03035418       1.05973157      -1.68549848
C        2.90908618      -0.08742943      -1.05294748
C        2.30431418       0.71056057      -1.93864048
C       -3.09291982       1.55190157       0.25722852
C        0.78178918      -0.45910843       0.15313252
C        0.30904818       0.54843957      -0.64344148
O        0.06420918      -0.35171843       2.45755052
O       -2.21062082      -0.56868243      -0.44362648
O       -0.21825782      -2.27746043       1.41960152
C        0.10667718      -0.98720943       1.40803852
C       -2.08889582       0.61712957      -0.27266948
O       -0.90348082       1.33125157      -0.44338548
H       -0.48089282      -2.42299943       2.33338252
H        2.51126118      -1.70055343       0.46589052
H        0.74618018       2.02030557      -2.22905648
H        3.94181218      -0.30827243      -1.14289448
H        2.84355818       1.30892757      -2.72109248
H       -2.83931782       1.75873357       1.41140052
H       -3.23340082       2.40465957      -0.46267748
H       -4.12224882       1.07205657       0.28260652
