21
Properties=species:S:1:pos:R:3 -405693.5710322611=T pbc="F F F"
C        1.67571515      -1.39800472      -0.71296512
C        0.74780715       0.90473328      -1.92918512
C        2.40444015      -0.81792472      -1.76222812
C        1.96079915       0.35069928      -2.46390712
C       -2.42136485       2.36639028       1.19750788
C        0.40366615      -0.91938772      -0.26417312
C        0.00909315       0.26468428      -0.90015812
O       -1.65906385      -1.70594772       0.65108988
O       -0.13055785       1.60817628       1.77484288
O        0.30829715      -1.87899472       1.83478588
C       -0.43946385      -1.60456072       0.73603088
C       -1.04787285       1.64280328       0.98109088
O       -0.98859985       1.12149028      -0.32522412
H       -0.28869285      -2.37738272       2.42873188
H        2.22634915      -2.21142172      -0.18684612
H        0.43665215       1.89886128      -2.22645812
H        3.32460315      -1.41179472      -2.01125012
H        2.57236715       0.75925028      -3.23503412
H       -2.36139085       3.47035528       1.03822188
H       -3.10027985       1.86155328       0.51656888
H       -2.81715085       2.18478928       2.15590688
