21
Properties=species:S:1:pos:R:3 -405687.6651500045=T pbc="F F F"
C        1.94336500      -1.38766782      -0.20805304
C        1.56241700       1.51692618      -0.44394304
C        2.91388700      -0.52636182      -0.75968904
C        2.75423200       0.86725918      -0.88506804
C       -2.75493100       2.24336918       0.77078996
C        0.66410900      -0.83678682       0.07592196
C        0.51178200       0.65380918      -0.02319604
O       -1.61414100      -1.66004782       0.60126596
O       -2.12042200       1.48701618      -1.34268904
O        0.20220200      -2.97070482       1.01824796
C       -0.41211100      -1.79341982       0.58393796
C       -1.80322800       1.52026318      -0.18620904
O       -0.57896300       1.18904018       0.46325496
H       -0.62419500      -3.46910782       1.19301096
H        2.15303600      -2.44761782      -0.14587504
H        1.28879700       2.57398818      -0.52216604
H        3.91477800      -0.84027882      -1.10199104
H        3.54293900       1.47537118      -1.34230004
H       -3.65135700       1.55849618       0.54429396
H       -2.48763100       2.00209518       1.77636496
H       -2.93971800       3.29113918       0.65895196
