21
Properties=species:S:1:pos:R:3 -405689.7421201894=T pbc="F F F"
C        2.01800833      -1.25984946      -0.29150866
C        1.24199433       1.36008254      -0.58192066
C        2.88684333      -0.43343046      -0.96562966
C        2.45136833       0.87820454      -1.15624166
C       -2.84319667       2.42601954       0.47516434
C        0.75192633      -0.89000746       0.11043034
C        0.39713533       0.50516354       0.13759734
O       -1.32318967      -1.48572646       1.19815134
O       -1.75565867       1.52427254      -1.46242266
O        0.29864333      -3.13417846       1.01014734
C       -0.26828067      -1.82422346       0.79558034
C       -1.82269267       1.55769154      -0.27465366
O       -0.87805767       1.01070154       0.55809934
H       -0.33608167      -3.68672946       1.44724934
H        2.23706933      -2.30989446      -0.01127366
H        0.94922533       2.41218254      -0.62327866
H        3.79674633      -0.85853846      -1.32678766
H        3.12406833       1.64360954      -1.58139766
H       -2.82354167       2.23519254       1.58899834
H       -2.40404467       3.43480354       0.65057034
H       -3.79298567       2.59905454       0.01190734
