21
Properties=species:S:1:pos:R:3 -405697.1706808936=T pbc="F F F"
C        1.89583189      -1.16603261      -0.46649151
C        1.10351589       1.28509639      -1.53610251
C        2.65467489      -0.58929561      -1.47001851
C        2.27662889       0.70096639      -1.96792451
C       -3.01578811       1.74669339       0.60667249
C        0.78006589      -0.52541261       0.04472149
C        0.30426789       0.65755839      -0.56447151
O        0.52601689      -2.25924861       1.62672249
O       -2.28682711      -0.41963161      -0.33419151
O       -0.44320911      -0.33659161       2.10391349
C        0.25105989      -1.13515861       1.36434249
C       -2.06298211       0.75647739      -0.04227551
O       -0.85011311       1.37485639      -0.30766051
H       -0.95680611      -0.79338861       2.83574649
H        2.16309689      -2.04230561       0.06230449
H        0.78938189       2.17706139      -2.12129351
H        3.58242989      -1.08709661      -1.57771851
H        2.90896689       1.14929139      -2.67785851
H       -3.80480411       2.19065639      -0.03268051
H       -3.53384611       1.23928539       1.37583449
H       -2.53428811       2.59481239       1.11736849
