21
Properties=species:S:1:pos:R:3 -405677.09887159243=T pbc="F F F"
C        2.11059906      -0.93729708      -0.16965243
C        1.02133006       1.14752092      -1.54590243
C        2.83016406      -0.43396608      -1.29481143
C        2.22022306       0.61827892      -1.97035543
C       -2.81155094       1.73337492       0.76049357
C        0.89196006      -0.34610508       0.26876057
C        0.29649706       0.63024492      -0.45140443
O        0.80163906      -2.26665508       1.68068057
O       -2.55134094      -0.01129208      -0.85044143
O       -0.98474694      -0.82947408       1.63429257
C        0.21301906      -1.23457608       1.20895757
C       -2.08599494       0.86194392      -0.10094043
O       -0.70699094       1.28455992       0.06702057
H       -1.09548194      -1.25186308       2.53734357
H        2.47019306      -1.85263108       0.27027357
H        0.45659006       1.86241592      -2.17081343
H        3.79688006      -0.88338708      -1.67584243
H        2.58377106       0.89392392      -2.95000843
H       -3.14114894       1.08176992       1.59512357
H       -2.39616594       2.65334692       1.11701857
H       -3.85482494       2.14354092       0.33060657
