21
Properties=species:S:1:pos:R:3 -405683.6534203233=T pbc="F F F"
C        2.00436245      -0.98181581      -0.36647844
C        0.77684845       0.96991519      -1.75367344
C        2.45454945      -0.76580581      -1.64591644
C        1.83293945       0.20892219      -2.35570744
C       -2.94664255       1.88007919       0.62129756
C        0.94006245      -0.27342481       0.28406156
C        0.33262645       0.67539419      -0.50428644
O        1.34450045      -1.72751781       2.01305656
O       -2.46049355      -0.11417881      -0.59747444
O       -0.78578455      -1.00189981       1.97561156
C        0.51599845      -0.98174381       1.56490256
C       -2.08009155       0.82666219      -0.06162344
O       -0.81053655       1.44359419      -0.05318944
H       -0.74042855      -1.49255381       2.78538356
H        2.34789145      -1.89204081       0.08528756
H        0.08537745       1.52318319      -2.40012444
H        3.14036145      -1.44623881      -2.13663644
H        2.16791245       0.57352519      -3.26335744
H       -3.72121855       1.30033119       1.08936656
H       -2.42805355       2.62858419       1.25334556
H       -3.41637755       2.47124719      -0.17366944
