21
Properties=species:S:1:pos:R:3 -405677.8039919536=T pbc="F F F"
C        2.31047761      -0.89404849      -0.04393853
C        0.71864661       0.92626151      -1.69054453
C        2.76949861      -0.49856849      -1.34049553
C        1.96823661       0.29414551      -2.21620753
C       -2.98886039       1.56472151       0.89621647
C        0.98489561      -0.47262949       0.30935247
C        0.24341261       0.39626551      -0.46620253
O        0.96548661      -1.99994549       2.10523247
O       -2.36999439       1.13396351      -1.41613853
O       -0.93557839      -1.13927349       1.59381447
C        0.42994061      -1.18934449       1.47530747
C       -2.07937639       1.12891451      -0.20341353
O       -0.85065539       0.87273651       0.25280247
H       -1.14071539      -2.13076649       1.71769347
H        2.96463261      -1.45065649       0.51116247
H        0.22322161       1.68838851      -2.23274053
H        3.80322161      -0.69324249      -1.70115353
H        2.47544661       0.57428851      -3.10027853
H       -3.68164539       2.31098051       0.48263147
H       -3.44611939       0.70990251       1.46269547
H       -2.43518039       2.01338851       1.66993147
