21
Properties=species:S:1:pos:R:3 -405691.40077195904=T pbc="F F F"
C        1.69888192      -1.36561803      -0.69743690
C        0.64540592       0.81613297      -1.97068190
C        2.44271492      -0.82554403      -1.74126090
C        1.83661492       0.24441797      -2.39868890
C       -2.33586508       2.65477697       1.19100310
C        0.46435892      -0.79615503      -0.23942990
C        0.02728992       0.37778397      -0.84607490
O       -1.52856308      -1.66865603       0.96634010
O       -0.43572208       1.33866297       1.67923110
O        0.52564492      -2.25012403       1.72067010
C       -0.32526708      -1.49283903       0.86905710
C       -1.12205708       1.75560297       0.78512310
O       -1.05934208       1.28072397      -0.45848590
H       -0.05332608      -2.91541503       2.16185110
H        1.99229992      -2.28905603      -0.17448490
H        0.22243692       1.80474097      -2.27202990
H        3.30794992      -1.32197903      -2.06668490
H        2.35468992       0.73137497      -3.18667690
H       -2.18738408       3.15160397       2.13574810
H       -2.56090008       3.28860197       0.31245910
H       -3.10544708       1.87724597       1.18122110
