21
Properties=species:S:1:pos:R:3 -405690.2180693407=T pbc="F F F"
C        1.63790663      -1.36810082      -0.58154918
C        0.93535963       1.05295818      -1.78748318
C        2.28021663      -0.94424582      -1.72586018
C        1.97555463       0.29080718      -2.27433618
C       -2.66631137       2.02318418       1.08450682
C        0.53779463      -0.70966282      -0.06352018
C        0.22296363       0.54215318      -0.65624318
O       -1.40952337      -1.11987282       1.39807882
O       -0.24972737       1.89265118       1.54991082
O        0.20977963      -2.84388182       0.99489082
C       -0.32399137      -1.50859282       0.82271282
C       -1.14791737       1.72047518       0.80461482
O       -1.07228937       1.13868718      -0.49647518
H       -0.50438937      -3.26648682       1.60161482
H        2.01582363      -2.26097482      -0.05447818
H        0.64935463       2.04318518      -2.12822418
H        3.01414463      -1.60130182      -2.20514918
H        2.68264963       0.56731918      -3.05063018
H       -2.68679637       2.60822818       1.94067282
H       -3.06679037       2.54640118       0.19526882
H       -3.17914837       1.07643918       1.12203782
