21
Properties=species:S:1:pos:R:3 -405692.6651978394=T pbc="F F F"
C        2.01730417      -1.36818199      -0.17162682
C        1.18746417       1.25146001      -1.12613982
C        2.93871117      -0.54426999      -0.85314882
C        2.44436717       0.69395801      -1.38610082
C       -2.75950583       1.96314301       0.84857818
C        0.74482017      -0.84732599       0.22461418
C        0.32651417       0.40124101      -0.26946582
O       -1.36463583      -1.75066999       0.57355418
O       -1.77613083       1.84047201      -1.42197582
O        0.28586117      -2.31274699       1.99229618
C       -0.23829483      -1.68174399       0.91984018
C       -1.78586783       1.67859801      -0.20740782
O       -0.83903683       0.84470901       0.28589818
H       -0.48528783      -2.66459199       2.45835718
H        2.41336317      -2.25634999       0.29381218
H        0.84746417       2.20228701      -1.45467782
H        3.86857117      -0.97962199      -1.23676882
H        3.06730717       1.33519001      -2.03110182
H       -3.69926083       2.20739501       0.37076118
H       -2.92173483       0.94510301       1.37125618
H       -2.51676883       2.66578201       1.59883418
