21
Properties=species:S:1:pos:R:3 -405682.5566202181=T pbc="F F F"
C        1.86553781      -1.21800374      -0.50741228
C        0.95232981       1.27203826      -1.31238128
C        2.29832881      -0.67757074      -1.74958328
C        1.90706181       0.60918726      -2.11946228
C       -3.21999919       1.63320526       0.26921072
C        0.98830681      -0.46893874       0.24862072
C        0.31937981       0.64209726      -0.30336128
O        0.50484981      -2.30701474       1.75565672
O       -2.07252019      -0.14677374      -1.08426328
O       -0.01001719      -0.19913274       2.48592372
C        0.46928981      -1.06965174       1.53267272
C       -2.13931419       0.71772026      -0.23263628
O       -0.83338419       1.26309326       0.17085772
H       -0.60193519      -0.63242174       3.05902872
H        2.48954481      -2.09655574      -0.07923428
H        0.43673381       2.20470226      -1.54146228
H        2.97082181      -1.24087874      -2.44933128
H        2.30501281       1.11147826      -3.05285728
H       -3.15202219       1.86823226       1.32716272
H       -2.91839719       2.48183626      -0.35805828
H       -4.23476119       1.21436026      -0.02273628
