21
Properties=species:S:1:pos:R:3 -405682.0242739696=T pbc="F F F"
C        1.92289223      -1.16409963      -0.53447238
C        0.95962023       1.26469637      -1.65594338
C        2.66536523      -0.49032163      -1.52575938
C        2.24603423       0.73816237      -2.03203538
C       -2.94039577       2.07932437       0.20093662
C        0.78481423      -0.61814263      -0.02968738
C        0.28681923       0.56810037      -0.64981538
O        0.87552223      -2.25647963       1.67029862
O       -2.62538977      -0.34915663       0.18366162
O       -0.39649077      -0.44984363       2.05932862
C        0.38948323      -1.21972763       1.31469262
C       -2.28587877       0.73720337       0.03410262
O       -0.86489177       1.17107637      -0.08558538
H       -0.37631577      -0.86029563       2.96535562
H        2.40563423      -2.03390563      -0.12663438
H        0.60136723       2.30748237      -1.83241138
H        3.67438523      -0.70480263      -1.72426438
H        3.03892423       1.40191537      -2.47541138
H       -2.37756877       2.97936637      -0.10675838
H       -3.79893277       2.04923937      -0.57014138
H       -3.34645477       2.20208637       1.20312362
