21
Properties=species:S:1:pos:R:3 -405682.25274930376=T pbc="F F F"
C        2.21244022      -1.02123673      -0.38118345
C        0.53554222       0.73409427      -1.70019445
C        2.61752522      -0.64753373      -1.70126445
C        1.73960622       0.22197527      -2.28807045
C       -3.13029078       2.18655227       0.50436855
C        1.07456022      -0.52108273       0.27343355
C        0.18327322       0.44449527      -0.36347145
O        1.51939922      -1.69261473       2.27462155
O       -2.63496578       0.49735127      -1.00590845
O       -0.65117278      -1.21133473       1.77671355
C        0.68786922      -1.18116073       1.56141655
C       -2.18005778       1.12808827      -0.16328445
O       -0.85468778       1.08786427       0.36236955
H       -0.79070378      -1.63738673       2.63829055
H        2.73044422      -1.84948173       0.01182055
H       -0.07581678       1.43801427      -2.24611545
H        3.60392322      -0.84669173      -2.14826545
H        1.81031322       0.44988427      -3.37041145
H       -3.93205178       2.20794527      -0.28333545
H       -3.44158378       1.92067627       1.65093755
H       -2.83768478       3.24124727       0.36513355
