21
Properties=species:S:1:pos:R:3 -405683.96862363484=T pbc="F F F"
C        2.01114637      -1.36024791      -0.21870539
C        0.71221037       0.93372409      -1.48816839
C        2.62540737      -0.58851191      -1.20274239
C        1.99929737       0.58812909      -1.82001239
C       -2.86605363       2.08950809       0.64363861
C        0.66220037      -0.86163891       0.17732061
C        0.03910837       0.24329709      -0.43983339
O        0.56926937      -2.60918291       1.65523661
O       -0.53093863       2.77359309       0.35633561
O       -1.39735663      -1.88982091       0.61088961
C       -0.08708163      -1.92224791       0.87825261
C       -1.43677463       1.96986609       0.26259261
O       -1.23784463       0.67174409      -0.05251639
H       -1.68521663      -2.33871991       1.42337161
H        2.31379637      -2.41255091      -0.05689239
H        0.21003137       1.77281609      -2.01437239
H        3.61735137      -0.81386291      -1.64549039
H        2.65804137       0.98435309      -2.58246139
H       -3.46123163       1.86234709      -0.15037539
H       -3.08205263       1.49610009       1.53547161
H       -2.92906663       3.17116909       0.89687761
