21
Properties=species:S:1:pos:R:3 -405683.4905223091=T pbc="F F F"
C        2.09411816      -0.98937020      -0.29495407
C        0.66246316       0.96688580      -1.63019607
C        2.65161316      -0.47758020      -1.49665007
C        1.82916016       0.42264480      -2.17586407
C       -3.04347384       1.85341080       0.26913293
C        0.84447216      -0.53439120       0.27249993
C        0.25985416       0.57585680      -0.35563407
O        1.25586616      -1.99565120       2.04823993
O       -2.29978384       0.07218280      -1.17079307
O       -0.63854884      -0.84472320       2.24192893
C        0.47109616      -1.15800720       1.55848593
C       -2.14060784       0.92432580      -0.39762607
O       -0.88114984       1.32024980       0.21495993
H       -0.76288784      -1.42443820       2.99288093
H        2.42541216      -1.92375020       0.23057793
H        0.07214816       1.75331180      -2.25041607
H        3.44058916      -1.24324720      -1.84868007
H        2.13999916       0.76582280      -3.16690007
H       -2.95684984       1.51140880       1.35831093
H       -2.78908384       2.92336280       0.32578393
H       -4.08913084       1.75967580       0.05372893
