21
Properties=species:S:1:pos:R:3 -405687.4683634361=T pbc="F F F"
C        2.04545063      -1.01714122      -0.23624143
C        0.93866363       1.06472578      -1.65990543
C        2.71548463      -0.39459822      -1.32405643
C        2.23971563       0.63913278      -2.07943943
C       -3.24775237       1.54369378       0.16104057
C        0.91858163      -0.40469822       0.28778557
C        0.29733263       0.57598478      -0.47509143
O       -0.45224637      -0.25796522       2.21688057
O       -2.09369037      -0.36946022      -0.80890443
O        0.38876263      -2.26472322       1.80162257
C        0.24361263      -0.94126722       1.51613857
C       -2.03996137       0.74166578      -0.19294043
O       -0.85121237       1.33577878      -0.01777043
H       -0.28120837      -2.41368322       2.56210957
H        2.73346563      -1.83515122       0.14290157
H        0.58765963       2.00504478      -2.04517443
H        3.70158563      -0.82527622      -1.49141543
H        2.81990763       1.29961678      -2.71041843
H       -3.04592637       2.54617878       0.40410257
H       -3.84815137       1.41088578      -0.76197843
H       -3.87254837       0.99153478       0.90282257
