21
Properties=species:S:1:pos:R:3 -405689.9259311919=T pbc="F F F"
C        2.05511095      -0.90717444      -0.28314210
C        0.81409895       1.07354556      -1.78473210
C        2.49540395      -0.65804744      -1.60643710
C        1.90528995       0.36257956      -2.29198610
C       -2.91681805       1.64335956       0.71948890
C        0.94766595      -0.25946944       0.22321690
C        0.32776095       0.71537456      -0.52420110
O        0.65885395      -2.21339944       1.56905990
O       -2.14265005      -0.29158444      -0.57778710
O       -0.55933605      -0.41757844       2.26868790
C        0.33372595      -1.06134544       1.41319890
C       -1.99757205       0.79585756      -0.05533910
O       -0.78226205       1.44136356      -0.00104810
H       -0.80476705      -1.19023744       2.88472190
H        2.25480195      -1.85082544       0.19501390
H        0.30308795       1.74720156      -2.44878610
H        3.21312595      -1.22684844      -2.15267610
H        2.24963395       0.49917556      -3.30680210
H       -3.16450705       0.93166756       1.44691990
H       -2.55222705       2.59719156       1.24419890
H       -3.86469805       1.70304056       0.30491590
