21
Properties=species:S:1:pos:R:3 -405697.08209912817=T pbc="F F F"
C        1.97277875      -1.06626772      -0.32712761
C        0.99013375       1.24136028      -1.64747061
C        2.68773475      -0.45229172      -1.39292261
C        2.23302475       0.65847728      -2.07569761
C       -3.03287225       1.78082828       0.32474039
C        0.76278575      -0.52075572       0.08247939
C        0.31326175       0.64986328      -0.55423861
O        0.50247275      -2.33532272       1.51652639
O       -2.22882925      -0.46488772      -0.07070861
O       -0.41447025      -0.28921872       2.12207139
C        0.21536175      -1.16404272       1.24295839
C       -2.05010125       0.71849628       0.01755739
O       -0.86170925       1.37190728      -0.19145861
H       -0.54245325      -0.97556572       2.87132039
H        2.34464675      -1.92155872       0.22798239
H        0.57618175       2.13730528      -2.08485461
H        3.69977975      -0.90283272      -1.57953661
H        2.84248775       1.04442128      -2.93833261
H       -3.28356225       1.38103728       1.29458839
H       -2.67604225       2.76050528       0.29586339
H       -4.03263925       1.75895928      -0.12018261
