21
Properties=species:S:1:pos:R:3 -405686.73156967823=T pbc="F F F"
C        1.81756274      -1.23450292      -0.51446008
C        1.05536174       1.33602708      -1.52258908
C        2.50919574      -0.72995192      -1.56951308
C        2.09936374       0.58196408      -2.02570308
C       -3.14780126       1.49814008       0.56333692
C        0.85976774      -0.46726192       0.15283292
C        0.37828974       0.70812008      -0.39709608
O        0.99071774      -1.90082592       2.13048192
O       -2.02395826      -0.00342992      -1.03873408
O       -0.96137226      -0.74087592       1.82478792
C        0.31120174      -1.14712892       1.44002392
C       -1.99532026       0.88486908      -0.11557008
O       -0.76530326       1.35356008       0.23528192
H       -0.94514126      -1.32787892       2.61012992
H        2.04019474      -2.27681392      -0.24049108
H        0.59085674       2.10095908      -1.99046808
H        3.36987574      -1.17879392      -2.10655208
H        2.66080874       1.12815708      -2.84264208
H       -2.91567026       1.95611808       1.54670192
H       -3.41221726       2.36843408      -0.05952008
H       -3.87608226       0.69796308       0.55442492
