21
Properties=species:S:1:pos:R:3 -405681.6915732266=T pbc="F F F"
C        2.15070849      -0.92018435      -0.25270716
C        1.03070349       1.16222165      -1.58176416
C        2.88459549      -0.23127535      -1.14551916
C        2.34070549       0.89932665      -1.83211816
C       -3.11858451       1.44453465       0.23977684
C        0.84965549      -0.44704235       0.17209384
C        0.35331649       0.62855865      -0.48522816
O       -0.25217651      -0.27625835       2.35808784
O       -2.06636151      -0.61373435      -0.65113416
O       -0.28526051      -2.16031435       1.34329884
C        0.17751849      -0.94633635       1.40058184
C       -2.06146251       0.50517665      -0.22416716
O       -0.79687151       1.22748365      -0.13167516
H       -0.68187451      -2.19528235       2.26489684
H        2.39768449      -1.85756535       0.13649884
H        0.55706149       1.91553765      -2.12641916
H        3.93003749      -0.50075235      -1.40152016
H        3.02954549       1.49490665      -2.57857016
H       -4.16712151       1.38336065       0.02901484
H       -3.17677251       1.26598465       1.37749584
H       -2.77408051       2.47877465       0.14170284
