21
Properties=species:S:1:pos:R:3 -405684.2707551945=T pbc="F F F"
C        2.03885188      -1.01814278      -0.34234754
C        0.93916788       1.09474222      -1.58019654
C        2.66854988      -0.65816478      -1.53445654
C        2.06854088       0.49111122      -2.10789854
C       -3.12238912       1.68449622       0.45827046
C        0.88200688      -0.41385978       0.14748046
C        0.31560488       0.69804322      -0.45277254
O       -0.18255612      -2.28156678       1.29882646
O       -2.24006212      -0.30395278      -0.48712654
O        0.27340588      -0.35020978       2.49523446
C        0.27749488      -1.16187578       1.30538446
C       -2.00761012       0.83335122      -0.10867654
O       -0.79757712       1.51068622       0.02008046
H       -0.32600612      -0.92734678       2.94555646
H        2.49172488      -1.90703878       0.26678746
H        0.63135288       2.02684322      -2.15185654
H        3.33628488      -1.29701778      -2.11447054
H        2.37049488       0.80586022      -3.16063354
H       -2.65338912       2.55843722       0.82534646
H       -3.77189912       1.83691622      -0.38717754
H       -3.65519412       1.06779122       1.16412446
