21
Properties=species:S:1:pos:R:3 -405691.25642548746=T pbc="F F F"
C        1.90875739      -1.41847042      -0.47800288
C        0.74417739       0.97176858      -1.47201688
C        2.53595939      -0.73931242      -1.56347588
C        1.87877339       0.42235958      -2.00799288
C       -3.29027261       1.24660858       0.45554212
C        0.78662139      -0.76258642       0.21045712
C        0.13819639       0.35785558      -0.39829488
O        0.90757239      -2.49197542       1.97115412
O       -2.00425361       1.91536158      -1.50486188
O       -0.16904261      -0.50786642       2.39405912
C        0.54748639      -1.36473242       1.54227512
C       -2.07550061       1.44393258      -0.39475988
O       -0.96991061       0.83588158       0.31333012
H       -0.11369461      -0.95379342       3.31086712
H        2.36395139      -2.31667442       0.08674312
H        0.37049439       1.99583058      -1.84488288
H        3.50550539      -1.01416042      -1.94192788
H        2.32221139       0.85578658      -2.93941388
H       -3.11560461       0.70972358       1.42130512
H       -3.72652461       2.21815058       0.53235112
H       -3.91983561       0.57616658      -0.10102988
