21
Properties=species:S:1:pos:R:3 -405693.0228673547=T pbc="F F F"
C        1.78789292      -1.32812494      -0.33500543
C        1.75687492       1.49667406      -0.18224843
C        2.86033992      -0.52631494      -0.86295443
C        2.79556592       0.86901206      -0.84172543
C       -2.80768508       1.96715606       0.66665157
C        0.62371492      -0.68104794       0.09125957
C        0.56084392       0.78387606       0.09429557
O       -1.64709808      -1.24310694       0.73134057
O       -1.80879808       0.79782806      -1.24005743
O       -0.05756908      -2.86333994       0.57360957
C       -0.46354708      -1.52921794       0.54063057
C       -1.77100408       1.26399006      -0.16612043
O       -0.54815508       1.34125706       0.62555457
H       -0.86671008      -3.33109794       0.81705657
H        1.76679392      -2.40709294      -0.13282643
H        1.83723392       2.57955206      -0.03033343
H        3.54712992      -1.09845494      -1.49676243
H        3.67679592       1.52851606      -0.95531643
H       -3.62598108       2.20851506      -0.05558143
H       -3.24524808       1.34882706       1.56084557
H       -2.24729408       2.81844806       1.18489457
