21
Properties=species:S:1:pos:R:3 -405673.25227578054=T pbc="F F F"
C        1.85326328      -1.20236954      -0.33297326
C        1.01710028       1.29843946      -1.40115826
C        2.54491328      -0.71049154      -1.51480826
C        2.10388828       0.58052146      -1.95111126
C       -3.06671572       1.22532846       0.58314674
C        0.75453128      -0.59126854       0.21072974
C        0.39089028       0.72456446      -0.36075626
O       -0.83917672      -1.76501954       1.49630374
O       -2.08617572       0.42795746      -1.49187826
O        0.91696128      -1.00076354       2.70714574
C        0.20638428      -1.19986654       1.49139674
C       -1.97486672       1.03132546      -0.45947626
O       -0.78807372       1.34877646       0.16153674
H        0.38017328      -1.36584754       3.38497074
H        2.14029928      -2.11568454      -0.02082326
H        0.41241628       2.03441246      -1.83500726
H        3.05344128      -1.45657054      -2.20987926
H        2.49503928       0.98342446      -2.87196426
H       -3.93756572       1.75628046       0.07034774
H       -3.08329672       0.22381846       1.01355774
H       -2.67445372       1.87062046       1.34261774
