21
Properties=species:S:1:pos:R:3 -405685.0422551466=T pbc="F F F"
C        2.00738424      -1.21956127      -0.45042213
C        1.00966124       1.26788573      -1.54083613
C        2.69512824      -0.61156827      -1.53924713
C        2.21086724       0.66934473      -2.00197313
C       -2.96249576       1.22794773       0.97446187
C        0.87835824      -0.61196627       0.07682987
C        0.42666824       0.59894873      -0.46128613
O        0.28075424      -2.20095327       1.69704887
O       -2.58836676       0.02212773      -1.10107213
O       -0.14789876      -0.04381427       2.24166887
C        0.30991724      -1.03038027       1.39965687
C       -2.23979376       0.74039573      -0.25635013
O       -0.77092076       1.21609573      -0.00563613
H       -0.47021376      -0.59026527       2.97767287
H        2.48442724      -2.03165427       0.07464487
H        0.51906824       2.16370673      -1.98767613
H        3.61075324      -1.09683827      -2.01218413
H        2.88026424       1.29394473      -2.71037613
H       -3.11084276       0.30420773       1.58066687
H       -2.38053576       1.88696273       1.57894487
H       -3.95148176       1.76802573       0.78828287
