21
Properties=species:S:1:pos:R:3 -405689.10936586943=T pbc="F F F"
C        1.84079554      -1.26063636      -0.60915639
C        0.78098954       1.15025464      -1.41775039
C        2.24799354      -0.76638536      -1.77819039
C        1.72373854       0.47339564      -2.15998639
C       -3.12709746       1.97823664       0.29532561
C        0.87289754      -0.55431636       0.26447161
C        0.24504854       0.62182164      -0.22998639
O        1.54792954      -1.82204036       2.18589961
O       -2.29924646       0.08800764      -1.07711339
O       -0.61133346      -1.11772436       2.09700061
C        0.71788554      -1.18802636       1.58978361
C       -2.07739146       1.10540264      -0.33214839
O       -0.84780746       1.41483664       0.27983661
H       -0.62161646      -1.78895136       2.86623361
H        2.24796154      -2.18579436      -0.25166639
H        0.41989054       2.09018064      -1.80580439
H        2.94255654      -1.39073136      -2.40427839
H        1.87210154       0.86518664      -3.15775139
H       -4.13527846       1.99235464      -0.19717939
H       -3.25559046       1.61312864       1.32880061
H       -2.78630946       3.03795964       0.42605161
