21
Properties=species:S:1:pos:R:3 -405673.0916005569=T pbc="F F F"
C        1.48423935      -1.59940371      -0.92654023
C        0.89903235       1.00676329      -1.28875623
C        2.23456035      -0.91271871      -1.84171523
C        1.99185935       0.40849429      -1.93232623
C       -2.74177665       2.47011929       0.81552177
C        0.58219035      -0.97750871      -0.12396023
C        0.12127035       0.39357029      -0.28006323
O       -1.09473765      -1.53301971       1.49924077
O       -0.25217065       2.84344229       0.92121777
O        0.22041335      -3.22635171       0.65200077
C       -0.24216965      -1.84237671       0.75849877
C       -1.24050665       2.22731129       0.62540377
O       -1.08419665       0.85716029       0.25400777
H       -0.41134265      -3.72207671       1.12349777
H        1.49542335      -2.63571071      -0.69591823
H        0.70429835       2.06496129      -1.45495423
H        3.12140435      -1.35755971      -2.22281523
H        2.84303735       1.06787629      -2.23891623
H       -3.43889665       2.62143729      -0.04183823
H       -3.20303165       1.46777329       1.23638477
H       -2.80222365       3.31512729       1.43760377
