21
Properties=species:S:1:pos:R:3 -405685.8086527691=T pbc="F F F"
C        1.69293268      -1.25668357      -0.37748574
C        1.52766168       1.41929643      -0.64948474
C        2.78245268      -0.56744557      -0.86995574
C        2.73583568       0.84454143      -1.00911374
C       -2.90940632       2.01453843       0.29457026
C        0.51000168      -0.66650257       0.17841926
C        0.50731168       0.75059843       0.01640826
O       -1.39271732      -1.49754257       1.57178326
O       -1.86505832       0.89372643      -1.42776474
O        0.29917568      -2.89310857       0.90983626
C       -0.36455332      -1.61806057       0.93464126
C       -1.72948232       1.51469843      -0.39455174
O       -0.60668632       1.47731443       0.41362426
H       -0.24814332      -3.43226557       1.51036726
H        1.72305468      -2.38446557      -0.45107374
H        1.35591768       2.50861443      -0.88431974
H        3.71053968      -1.03349057      -1.27090274
H        3.46744768       1.49381843      -1.35383574
H       -3.14733032       1.12641843       0.94912926
H       -3.06169132       2.85845943       0.94625526
H       -3.80634332       1.92269243      -0.39178574
