21
Properties=species:S:1:pos:R:3 -405680.55687652144=T pbc="F F F"
C        2.17816556      -1.00391423      -0.00426707
C        0.74876956       0.70732077      -1.65389807
C        2.80986656      -0.58220823      -1.24305307
C        2.04726256       0.22897377      -2.07420407
C       -3.25568944       1.59529077       0.65086193
C        0.86608356      -0.63372723       0.27801793
C        0.21312056       0.42507777      -0.41848307
O       -0.76396044      -1.72467723       1.53636693
O       -2.28216644       1.16997177      -1.68305507
O        1.23616756      -1.13398923       2.55975493
C        0.30856556      -1.20563923       1.50236593
C       -2.23733244       1.19253177      -0.47995407
O       -0.91161544       0.95560877       0.18184793
H        0.81680156      -1.88298523       3.09641593
H        2.65342756      -1.62706623       0.77925693
H        0.06746556       1.34037077      -2.32911007
H        3.83625656      -0.75536023      -1.55670707
H        2.22693156       0.61244977      -3.05129107
H       -3.08423844       2.63054977       0.91514393
H       -4.29116444       1.58816077       0.42198193
H       -2.83509744       1.11144377       1.53173993
