21
Properties=species:S:1:pos:R:3 -405679.6648605665=T pbc="F F F"
C        2.23442574      -0.81984240       0.01310247
C        0.65451274       0.73445360      -1.56461853
C        2.75660374      -0.27294240      -1.12911153
C        1.92696874       0.53765160      -1.99079253
C       -2.92917726       2.03010260       0.44451247
C        0.88045774      -0.72125740       0.29430947
C        0.12568874       0.19426960      -0.37904353
O       -0.73490426      -1.84555740       1.64837147
O       -2.32172126       1.04444260      -1.79477453
O        1.24388474      -1.27512240       2.54954447
C        0.36579374      -1.29842740       1.55691847
C       -2.16103126       1.15160160      -0.61979653
O       -1.10565726       0.64234160       0.19277147
H        0.73584074      -1.96494340       3.14191147
H        3.05905674      -1.46193740       0.58168747
H       -0.11405326       1.33108260      -2.08890453
H        3.79015174      -0.53051940      -1.53263753
H        2.28553674       0.86647960      -2.99483153
H       -3.43210126       2.79180960      -0.09624753
H       -3.74147726       1.24752260       0.74001847
H       -2.15766726       2.19323060       1.22981047
