21
Properties=species:S:1:pos:R:3 -405678.7787999679=T pbc="F F F"
C        2.15276674      -0.89510807      -0.16818073
C        1.11327674       1.39920593      -1.58992673
C        2.92556274      -0.19067207      -1.01041673
C        2.42799974       0.99165693      -1.74305473
C       -3.38033326       1.66901293      -0.31362273
C        0.78714874      -0.38213807       0.13240327
C        0.34925474       0.80824993      -0.49765573
O        0.02769674      -0.77920007       2.42437027
O       -2.24713226      -0.45653707       0.27374127
O       -0.05481626      -2.55273407       1.03897527
C        0.14155374      -1.12625707       1.27061627
C       -2.13325226       0.64635993      -0.12364773
O       -0.94055226       1.32561593      -0.42713873
H       -0.41552126      -2.93225507       1.86864627
H        2.30772874      -1.85775007       0.33622327
H        0.72774074       2.23819393      -2.11928273
H        3.94798774      -0.39470107      -1.22826373
H        3.12146674       1.56717693      -2.25904073
H       -3.04098026       2.70192093      -0.70822873
H       -4.11070526       1.32093693      -0.98820073
H       -3.71571426       1.67214193       0.71195927
