21
Properties=species:S:1:pos:R:3 -405689.0540885141=T pbc="F F F"
C        1.94169960      -1.12097278      -0.42989342
C        1.08789160       1.34999522      -1.41128142
C        2.79060860      -0.35188978      -1.23277142
C        2.26715860       0.71951822      -1.91669642
C       -2.87749940       1.46490122       0.85275558
C        0.69092960      -0.55512978       0.03450058
C        0.40308260       0.69103722      -0.45284342
O        0.40595560      -2.43181078       1.53339858
O       -2.21492440      -0.05928178      -0.97822342
O       -0.72242840      -0.44145778       1.96474558
C        0.08907860      -1.25272878       1.24610558
C       -1.99608940       0.82689122      -0.15070942
O       -0.74070940       1.32960822       0.05752358
H       -0.88603340      -1.12868778       2.67710358
H        2.35377260      -1.97429278       0.16472558
H        0.63517260       2.13757322      -1.95478342
H        3.78333960      -0.77386678      -1.50591042
H        2.86168660       1.31547522      -2.55135342
H       -3.81312540       0.91489522       0.96268958
H       -2.28886340       1.26307622       1.70590158
H       -3.06790640       2.59128322       0.80326958
