21
Properties=species:S:1:pos:R:3 -405689.2243881304=T pbc="F F F"
C        2.23044773      -0.89254342      -0.12753201
C        0.83597873       1.04585558      -1.60168801
C        2.78211173      -0.47749442      -1.37473301
C        1.97615473       0.35644458      -2.14202501
C       -3.02993027       1.47288558       0.58393699
C        1.02907873      -0.41021842       0.34488599
C        0.36865973       0.63574458      -0.41814101
O       -1.00887027      -1.11000542       1.56817399
O       -2.25136927       0.30280258      -1.31937301
O        0.87499173      -1.81934342       2.44305599
C        0.20475873      -1.02561142       1.44779999
C       -2.06093627       0.88690658      -0.29992301
O       -0.79710927       1.26884558       0.08402599
H        0.10217173      -1.98267242       2.99782199
H        2.70364073      -1.65359142       0.45142099
H        0.17539973       1.77256358      -2.03216401
H        3.73508473      -0.95960242      -1.79093401
H        2.19688873       0.51620558      -3.17182201
H       -3.47250527       2.43045858       0.10647399
H       -3.88257127       0.79963458       0.55711999
H       -2.68365427       1.66939458       1.54158999
