21
Properties=species:S:1:pos:R:3 -405685.1256577104=T pbc="F F F"
C        2.06665127      -1.01113225      -0.21014227
C        0.83911127       1.12758475      -1.50021027
C        2.60249527      -0.51736425      -1.35893327
C        2.18527227       0.70127675      -1.86057927
C       -3.07523673       1.91919975       0.16707973
C        0.83022427      -0.54831725       0.31483973
C        0.16323827       0.45659375      -0.33179227
O       -0.87629473      -1.09478425       2.02918273
O       -2.24311773       0.33330775      -1.55247227
O        1.21075427      -1.98599325       2.20246873
C        0.26349927      -1.22206125       1.55895273
C       -2.16629873       0.97846175      -0.52561627
O       -0.87438473       1.06056175       0.22960673
H        0.69238027      -2.39891025       2.97774073
H        2.51604227      -1.82060625       0.41309473
H        0.53938827       2.14046975      -1.74457027
H        3.51725427      -0.96359825      -1.67323927
H        2.68482927       1.02365775      -2.74949727
H       -3.10987973       2.88052675      -0.33432927
H       -4.13891273       1.49003075       0.33656373
H       -2.69410073       1.98553975       1.21745273
