21
Properties=species:S:1:pos:R:3 -405681.1837705323=T pbc="F F F"
C        1.53954329      -1.58582871      -0.75746173
C        1.10065129       1.16004129      -1.37297473
C        2.24723729      -1.01263671      -1.78453873
C        2.22366329       0.40302829      -1.97753373
C       -2.73185171       1.93879429       1.13502927
C        0.42598329      -0.84960571      -0.25067573
C        0.16588329       0.44001529      -0.64942873
O       -0.68435671      -1.02384971       1.91219227
O       -0.43332571       2.39718129       1.14108027
O       -0.23297071      -2.89431471       0.58204027
C       -0.14568071      -1.50905171       0.91612827
C       -1.35735671       1.76139429       0.59761527
O       -1.18859971       0.87813529      -0.44711173
H       -0.46677171      -3.34166071       1.48787727
H        1.74633029      -2.64821371      -0.58502373
H        0.98349429       2.21869729      -1.44446973
H        3.01263729      -1.61467971      -2.16848873
H        2.97864329       0.89762129      -2.64938973
H       -2.78981771       2.85884229       1.65098227
H       -3.62158171       1.75869429       0.48690327
H       -2.83689471       1.18887329       1.96254427
