21
Properties=species:S:1:pos:R:3 -405687.1100683249=T pbc="F F F"
C        1.96957381      -1.19774827      -0.21190867
C        1.56333281       1.51165473      -0.74919767
C        2.93783981      -0.52548527      -0.91371567
C        2.75082781       0.91752873      -1.11285867
C       -3.07044519       1.71732573       0.30426433
C        0.78787881      -0.60921927       0.17461433
C        0.58920681       0.79273073       0.00791733
O       -1.30038419      -0.90792327       1.56585333
O       -1.76809519       0.11699273      -0.93797167
O       -0.49160719      -2.69526627       0.38116633
C       -0.33823719      -1.36985527       0.85369533
C       -1.75205219       1.05008073      -0.17115367
O       -0.50560119       1.53303073       0.46511933
H       -1.29927519      -2.83281627       0.87654533
H        2.22887181      -2.17907727       0.08517833
H        1.47142081       2.60651773      -0.91802667
H        3.76302881      -1.04000827      -1.32731867
H        3.44920781       1.59400273      -1.64478867
H       -3.91062819       1.19176273      -0.23086767
H       -2.95539719       1.64241773       1.40151133
H       -2.97025919       2.78429773       0.01236033
