21
Properties=species:S:1:pos:R:3 -405676.61835925176=T pbc="F F F"
C        2.17659091      -0.92071968      -0.40456961
C        0.72214591       1.01926032      -1.64207461
C        2.60767191      -0.60666768      -1.68875261
C        1.80586791       0.33583732      -2.30235061
C       -3.01387209       1.83947732       0.71530839
C        0.98976991      -0.49812768       0.22489839
C        0.34811191       0.69838132      -0.36597561
O        0.99426691      -1.88075568       2.37938139
O       -2.34082309       0.13373732      -1.00179261
O       -0.82757509      -1.00592568       1.50223239
C        0.48203591      -1.28018068       1.48212839
C       -2.03678909       0.95852532      -0.06650861
O       -0.72193709       1.34602132       0.32028739
H       -1.18531609      -1.39313868       2.28777039
H        2.70691291      -1.72877868       0.15167339
H        0.17054791       1.60691032      -2.29636761
H        3.29053991      -1.20264868      -2.25778761
H        2.11164991       0.65413132      -3.28948361
H       -2.75876809       1.72509032       1.67091239
H       -2.94284509       2.88156632       0.49276239
H       -4.02813209       1.38034432       0.65008539
