21
Properties=species:S:1:pos:R:3 -405680.31700796325=T pbc="F F F"
C        2.09525869      -0.99158090      -0.16276007
C        0.86010469       1.03013210      -1.56724407
C        2.71345069      -0.35042890      -1.23982407
C        2.09301669       0.64487810      -1.98985807
C       -3.13921031       1.40414910       0.52583293
C        0.99368569      -0.45951090       0.42093493
C        0.29585969       0.47913610      -0.39934307
O        0.19832669      -2.53856090       1.40375493
O       -2.20267431       1.03212910      -1.61828907
O       -0.04227431      -0.61177290       2.55478593
C        0.23040569      -1.32459190       1.41819793
C       -2.08515931       1.13995610      -0.43127907
O       -0.90702531       0.73223410       0.27616493
H       -0.32521531      -1.20276790       3.23142093
H        2.76685069      -1.66484090       0.34403393
H        0.31472969       1.78194110      -2.03335107
H        3.53105169      -0.88871790      -1.75258407
H        2.51212569       1.05778410      -2.93394407
H       -3.43520431       0.38579210       0.99174893
H       -2.85123731       1.88465410       1.49947693
H       -3.94748831       1.92332510      -0.08626607
