21
Properties=species:S:1:pos:R:3 -405676.3127949114=T pbc="F F F"
C        1.91323701      -1.12250276      -0.33519919
C        0.69849301       1.14182824      -1.42454419
C        2.51941301      -0.40598376      -1.40201119
C        1.92249401       0.65264924      -2.02516919
C       -3.14860999       2.15913324       0.01050181
C        0.87934601      -0.56361276       0.39260381
C        0.20956501       0.54271524      -0.25568019
O        1.24158601      -2.35721276       1.89744881
O       -2.27751699       0.43591424      -1.48635519
O       -0.42470199      -0.96040476       2.34950281
C        0.53795001      -1.46853076       1.63295381
C       -2.15848999       1.07888024      -0.49118919
O       -0.96985199       0.97785124       0.35053981
H       -0.19405299      -1.25106576       3.25330181
H        2.38463901      -2.06147676       0.06953381
H        0.25235001       1.92960024      -1.79255819
H        3.45780301      -0.82081576      -1.86397819
H        2.37108401       1.26271724      -2.88978619
H       -3.15266899       2.81047224      -0.94898619
H       -4.14160799       1.83000624       0.36817981
H       -2.57045899       2.52886224       0.83795081
