21
Properties=species:S:1:pos:R:3 -405669.9624421947=T pbc="F F F"
C        2.20959083      -1.16523649      -0.43522343
C        0.84369183       1.10494051      -1.52058843
C        2.62295183      -0.53734449      -1.68650443
C        1.99001683       0.52579851      -2.10765143
C       -3.02241417       2.09225551       0.60085257
C        1.01569883      -0.68637349       0.13772457
C        0.34302883       0.43189051      -0.42531143
O        1.10116383      -1.79020749       2.29488557
O       -2.60168317       0.24628051      -0.94602443
O       -0.86305317      -1.00777349       1.68099457
C        0.47205983      -1.25560349       1.46058057
C       -2.08198717       0.95250351      -0.11023543
O       -0.80077717       1.10774251       0.18486157
H       -1.05576117      -1.21745849       2.61546157
H        2.66945983      -2.07054849       0.14457857
H        0.19303483       1.77968051      -2.06749143
H        3.39889683      -1.01855549      -2.16716743
H        2.49534283       1.03964551      -3.07438543
H       -3.80537417       1.98536351      -0.10776043
H       -3.27416117       1.80608451       1.72971657
H       -2.70329317       3.19477651       0.56270257
