21
Properties=species:S:1:pos:R:3 -405693.90317024756=T pbc="F F F"
C        2.06430523      -0.97164555      -0.15853936
C        1.10595223       1.22410045      -1.56083736
C        2.85233223      -0.41869655      -1.09816136
C        2.34411823       0.77135745      -1.81945936
C       -3.01977177       1.64418345       0.35130464
C        0.83814423      -0.47471455       0.22518364
C        0.38174023       0.67187445      -0.48581136
O       -0.73673677      -0.46013155       2.07112364
O       -2.24786677      -0.34062155      -0.75129936
O        0.32425923      -2.38542155       1.43947664
C        0.04042323      -1.05736355       1.36342564
C       -2.03274377       0.71710045      -0.20367036
O       -0.77714177       1.37070045      -0.10287836
H       -0.13320477      -2.51130955       2.24647964
H        2.69542823      -1.74658955       0.47730264
H        0.66322223       2.09858445      -1.98513536
H        3.88483223      -0.75172455      -1.33765536
H        2.94599723       1.28870745      -2.63012336
H       -2.90483777       2.64956745       0.08243164
H       -3.93732477       1.22823745      -0.07952836
H       -3.12650177       1.47930345       1.39012664
