21
Properties=species:S:1:pos:R:3 -405689.8893297203=T pbc="F F F"
C        1.78177046      -1.29280381      -0.36265066
C        1.40792946       1.43134119      -0.64670566
C        2.80798546      -0.49408881      -0.97568366
C        2.71528146       0.92063219      -1.01800566
C       -2.87971354       1.56340319       0.44846734
C        0.63352746      -0.76355181       0.24730834
C        0.49011446       0.63577419       0.06321534
O       -1.61977654      -1.41543181       1.26636734
O       -1.39220554       1.50489919      -1.49162466
O       -0.00021354      -2.89250081       0.85670934
C       -0.53771254      -1.60306481       0.84488634
C       -1.59900454       1.51725319      -0.24083366
O       -0.59568954       1.24997619       0.68829134
H       -0.72530454      -3.57432681       0.76515434
H        1.89897746      -2.37195781      -0.42541266
H        1.26226846       2.52478519      -0.82883166
H        3.64012446      -1.03800781      -1.33864666
H        3.49448846       1.60472319      -1.45938866
H       -2.98121554       2.22765019       1.33358334
H       -3.58754054       1.96471619      -0.25339566
H       -3.13507754       0.51023919       0.78887434
