21
Properties=species:S:1:pos:R:3 -405690.90936660353=T pbc="F F F"
C        2.09340094      -1.04987614      -0.29692111
C        1.13779494       1.21863686      -1.35864511
C        2.88254794      -0.39206914      -1.23377811
C        2.37797994       0.78644386      -1.80037011
C       -3.20264606       1.73192786       0.16871489
C        0.93250994      -0.43352214       0.27006789
C        0.34257894       0.68372386      -0.34550611
O       -0.63838406      -0.57833514       2.17663589
O       -2.28851306      -0.23312814      -0.87612411
O        0.33146494      -2.47398014       1.49937689
C        0.12185194      -1.06793414       1.36312789
C       -2.06129406       0.79307986      -0.30588311
O       -0.84254906       1.33250586       0.00826689
H       -0.19671206      -2.49425214       2.39529289
H        2.28555194      -1.99473714       0.26068889
H        0.81569094       2.11303186      -1.92879811
H        3.81158194      -0.81632314      -1.48145011
H        3.11086594       1.31839886      -2.46800311
H       -4.02955306       1.15300586       0.47126389
H       -2.84483606       2.32872086       0.95822789
H       -3.45513506       2.35329886      -0.63412411
