21
Properties=species:S:1:pos:R:3 -405679.6323255048=T pbc="F F F"
C        2.22148283      -0.90022545      -0.37446550
C        0.85258583       1.10307455      -1.62873950
C        2.61216683      -0.39866645      -1.56801550
C        2.01171683       0.66545455      -2.19764550
C       -3.07318317       1.93279055       0.22043550
C        0.95031283      -0.54382745       0.22607450
C        0.34150283       0.58042855      -0.45579450
O        0.69368783      -2.38912045       1.64291950
O       -2.44485017      -0.31765945      -0.23247450
O       -0.41027117      -0.51076545       2.22219050
C        0.32885583      -1.24561545       1.40373150
C       -2.07139717       0.84458355       0.04104550
O       -0.85282517       1.31382155      -0.16765450
H       -0.70106517      -1.10461645       2.97177250
H        2.78218883      -1.77898145       0.08111150
H        0.35727183       1.94479355      -2.07013450
H        3.58249683      -0.68170545      -2.05997850
H        2.23811683       0.91938755      -3.19645050
H       -3.92598017       1.61554355       1.02599050
H       -2.74047017       2.98497655       0.57065450
H       -3.45370617       2.04799955      -0.71799250
