21
Properties=species:S:1:pos:R:3 -405675.44504497346=T pbc="F F F"
C        2.09206030      -1.26707890       0.02485483
C        1.14103130       1.25506510      -0.96723117
C        2.97565430      -0.36705290      -0.65116217
C        2.48840530       0.85009910      -1.17366717
C       -2.74019870       2.37954310       0.71173683
C        0.73989530      -0.94570290       0.23217383
C        0.29851730       0.39664910      -0.20499517
O       -1.34594870      -1.46084490       1.09443183
O       -1.89199470       1.75074610      -1.43896617
O        0.33773130      -3.11790890       0.97629283
C       -0.20320870      -1.80834490       0.79699283
C       -1.85713770       1.72971910      -0.21450117
O       -0.85146770       0.86661510       0.45025383
H       -0.42979270      -3.71923290       1.23142783
H        2.45278030      -2.22667490       0.37361983
H        0.83570230       2.18713010      -1.46285517
H        4.02670130      -0.72590090      -0.93168817
H        3.14664730       1.49565210      -1.80713217
H       -2.75982770       1.81930310       1.63508383
H       -2.61523870       3.37250710       0.65356983
H       -3.87551270       2.45830010       0.35052883
