21
Properties=species:S:1:pos:R:3 -405683.37397487473=T pbc="F F F"
C        1.79233871      -1.21309161      -0.52330380
C        1.54659371       1.42790639      -0.28710580
C        2.89060071      -0.45591061      -0.98036080
C        2.65843071       0.95157739      -1.02528780
C       -2.97231029       2.25094239       0.22773320
C        0.67570171      -0.76952461       0.12586920
C        0.48880771       0.66018739       0.24556220
O       -1.17879429      -1.31251061       1.43971820
O       -1.71308729       0.76698639      -1.16587080
O       -0.14203929      -3.04567661       0.29947320
C       -0.35441729      -1.74699061       0.70442720
C       -1.73244029       1.42364439      -0.11935880
O       -0.69862129       1.38100939       0.77321920
H       -0.74872729      -3.64983861       0.83577120
H        1.91318071      -2.30942461      -0.40101280
H        1.29229871       2.49116839      -0.52605080
H        3.82242371      -0.92573161      -1.32421080
H        3.28123471       1.72926039      -1.46547080
H       -3.03474629       2.59270939       1.28026120
H       -2.98721929       3.33282239      -0.23914080
H       -3.75472329       1.70709539      -0.10084680
