21
Properties=species:S:1:pos:R:3 -405680.9780478277=T pbc="F F F"
C        1.72717798      -1.14906693      -0.60340903
C        1.12114698       1.27475507      -1.44072103
C        2.44578498      -0.62532293      -1.62578503
C        2.19995198       0.66878307      -2.08713103
C       -2.86466502       1.86750707       0.17865597
C        0.76692698      -0.50116293       0.12755697
C        0.45545898       0.73379107      -0.40402403
O        0.44818798      -2.32817693       1.53557597
O       -2.20195702      -0.39931893       0.01577197
O       -0.53827502      -0.47734893       2.20364597
C        0.31411598      -1.12827593       1.35437497
C       -2.00926102       0.76649007      -0.01857903
O       -0.71800302       1.44960807      -0.15441403
H       -0.92334902      -1.24110293       2.75371797
H        1.94146898      -2.27723393      -0.33483403
H        0.65815398       2.18344007      -1.81021203
H        3.23383298      -1.22555893      -1.96973503
H        2.85688098       1.14174007      -2.83796203
H       -2.70890802       2.71128807      -0.51425303
H       -3.93264502       1.53540007       0.14642897
H       -2.84617702       2.31666107       1.23072197
