21
Properties=species:S:1:pos:R:3 -405686.0869633451=T pbc="F F F"
C        2.01394680      -1.10874433      -0.34439292
C        0.68919680       0.99057567      -1.50490992
C        2.47590080      -0.66716133      -1.56782292
C        1.72622880       0.40367267      -2.13917392
C       -3.01922920       1.81130967       0.57665208
C        0.95878780      -0.51162233       0.37704908
C        0.20456380       0.46197667      -0.33365992
O        1.35550380      -1.77534033       2.34749508
O       -2.21043220       0.60287367      -1.39138192
O       -0.77933420      -1.21504733       1.63688308
C        0.54090080      -1.20561333       1.64557108
C       -2.04473320       1.14407767      -0.29324492
O       -0.80703420       1.19085367       0.24681108
H       -1.06333320      -1.91635333       2.24622408
H        2.28442080      -2.03651233       0.07503908
H       -0.05574120       1.74243467      -1.97310492
H        3.38305380      -1.04618633      -1.90412892
H        1.84959680       0.68421467      -3.17938192
H       -3.70845420       1.04584867       1.05836408
H       -2.39375320       2.35961367       1.29214708
H       -3.76705220       2.45999867      -0.01169392
