21
Properties=species:S:1:pos:R:3 -405693.6097280138=T pbc="F F F"
C        2.08163137      -0.95699662      -0.15724849
C        0.90250437       1.19155338      -1.54356749
C        2.73162937      -0.40514362      -1.22446149
C        2.07986837       0.64939738      -1.93139249
C       -3.13042063       1.66093338       0.17374051
C        0.84764437      -0.44240862       0.28316151
C        0.28370637       0.64387838      -0.37876749
O       -0.68787263      -0.55085062       2.16259051
O       -2.18031963      -0.16356162      -1.18813549
O        0.83269737      -2.24643862       1.89361351
C        0.14488537      -1.16601962       1.51846251
C       -2.06217163       0.80017638      -0.41654649
O       -0.85771563       1.26751538       0.05634151
H        0.25023237      -2.60106462       2.61418251
H        2.46494937      -1.83300962       0.27287751
H        0.49531137       2.08873438      -1.97469449
H        3.61468937      -0.99133262      -1.63525949
H        2.69028437       0.92216238      -2.77737849
H       -4.17596563       1.41470738      -0.24530849
H       -2.84367463       1.67312238       1.27678751
H       -2.76836663       2.68074638      -0.16683949
