21
Properties=species:S:1:pos:R:3 -405680.3838686695=T pbc="F F F"
C        1.77696644      -1.41549382      -0.80595014
C        0.64281344       0.92633718      -1.84320114
C        2.49298244      -0.52791782      -1.64459614
C        1.89841244       0.54051218      -2.29970914
C       -2.57493356       2.06997118       1.00313986
C        0.58865544      -0.97105282      -0.23577414
C        0.13102544       0.23121618      -0.76986714
O       -1.02515156      -0.83167982       1.50067686
O       -0.17568956       2.03879518       1.48891286
O       -0.20887256      -2.89193182       1.16152086
C       -0.31230856      -1.61616282       0.86386586
C       -1.15505756       1.60338518       0.84167686
O       -1.12424356       0.84065618      -0.33630414
H       -0.77167556      -3.12038382       1.99480486
H        2.37042844      -2.24737782      -0.38202814
H        0.11343144       1.77282418      -2.21942314
H        3.35138644      -1.03345682      -2.02874314
H        2.43880044       1.32366018      -2.91511714
H       -2.56922456       2.94647418       1.70115486
H       -2.97786856       2.29159518      -0.01913914
H       -3.27717656       1.45290418       1.55408086
