21
Properties=species:S:1:pos:R:3 -405682.44308456936=T pbc="F F F"
C        2.08890929      -1.01610687      -0.36330260
C        0.73773529       1.04503013      -1.38548260
C        2.57818629      -0.39850387      -1.54478060
C        1.97053229       0.77884613      -1.95310560
C       -3.08807571       2.18877813      -0.17100760
C        0.91698829      -0.67170187       0.25627840
C        0.17384529       0.43700913      -0.27316460
O        0.96931729      -2.36544887       1.95398140
O       -2.36372771       0.10275813      -1.18449960
O       -0.37516471      -0.67935687       2.30116540
C        0.50127529      -1.36869687       1.55465140
C       -2.15770671       1.00808913      -0.39078060
O       -0.90704071       0.98931213       0.37286940
H       -0.62830971      -1.34825087       2.97378340
H        2.67118129      -1.91998987      -0.22810460
H        0.32494429       2.08253113      -1.60797460
H        3.50406329      -0.85473987      -1.85172160
H        2.31736929       1.48559413      -2.74768460
H       -3.85319371       2.14225613       0.54141940
H       -2.61547571       3.09758313       0.17968240
H       -3.55426471       2.46002613      -1.06008060
