21
Properties=species:S:1:pos:R:3 -405681.587810313=T pbc="F F F"
C        2.13448881      -0.98436105      -0.19521790
C        0.76264381       0.95941395      -1.67992890
C        2.66034481      -0.40792605      -1.30730390
C        1.91031681       0.39396595      -2.14701990
C       -3.03019019       1.49540495       0.71966210
C        0.84942481      -0.55087105       0.28437510
C        0.23844681       0.47350595      -0.40442190
O        0.89789581      -2.27643205       1.73006110
O       -2.38345219       0.41777895      -1.46285690
O       -0.47620119      -0.52908705       2.33925910
C        0.39299181      -1.19023705       1.53798210
C       -2.12298519       0.95175995      -0.39770490
O       -0.80466619       1.28624595       0.11050910
H       -0.49380319      -1.18679205       3.09597410
H        2.55473481      -1.80249705       0.39213110
H        0.33068981       1.85571095      -2.34526390
H        3.80379381      -0.49371905      -1.45620290
H        2.23114081       0.55718595      -3.12414990
H       -2.70893019       2.48465795       0.92692810
H       -4.13048319       1.48216695       0.43126610
H       -2.87414819       1.00320895       1.69948510
