21
Properties=species:S:1:pos:R:3 -405685.32643182634=T pbc="F F F"
C        1.82754993      -1.39979147      -0.34355253
C        1.20918893       1.36125253      -0.81523953
C        2.68641893      -0.59356547      -1.17836153
C        2.36902393       0.77122153      -1.32844653
C       -2.83813407       2.07701153       0.70302447
C        0.64898093      -0.81554847       0.15218847
C        0.31453493       0.51528353      -0.13766653
O       -1.22124507      -2.37139547       0.44408447
O       -1.48573007       1.78653253      -1.41891353
O        0.21804293      -2.01713647       2.14590247
C       -0.22169807      -1.76968847       0.88134747
C       -1.74207107       1.55636053      -0.26744353
O       -0.73244007       1.06826853       0.56005247
H       -0.04401907      -2.95427647       2.35105147
H        1.96662493      -2.43241847      -0.09518953
H        0.96101593       2.34880053      -1.22305153
H        3.67516093      -0.96919747      -1.35041753
H        3.05929493       1.44045153      -1.93959353
H       -3.81905207       1.81965153       0.34170447
H       -2.67606907       1.75177953       1.76653047
H       -2.64664107       3.06482953       0.46706247
