21
Properties=species:S:1:pos:R:3 -405685.1820568218=T pbc="F F F"
C        1.93745094      -1.07122230      -0.23391664
C        0.99159194       1.17189770      -1.54750664
C        2.65119994      -0.54556930      -1.34928464
C        2.11560794       0.55592970      -2.03618164
C       -3.08127806       1.72004770       0.18474636
C        0.83518894      -0.44516330       0.27826736
C        0.38056494       0.77889470      -0.35034564
O       -0.98647606      -0.88437230       1.81492636
O       -2.20355506      -0.18811030      -1.07810664
O        1.05044094      -1.81693230       2.19121536
C        0.18225694      -1.02215330       1.47885036
C       -2.03783306       0.80619770      -0.31451264
O       -0.77979106       1.24449470       0.18435636
H        0.48995894      -2.40600430       2.85401036
H        2.41971394      -1.95828030       0.12268936
H        0.27480894       1.74295870      -2.23360864
H        3.60273194      -1.01895830      -1.79608464
H        2.38901694       0.61257070      -3.10343464
H       -4.09883406       1.39943970      -0.05718064
H       -3.01146106       1.78200870       1.26673436
H       -3.05991006       2.74760770      -0.13285764
