21
Properties=species:S:1:pos:R:3 -405665.0889049013=T pbc="F F F"
C        2.24704125      -1.03980539      -0.31406091
C        0.61724725       0.69308761      -1.79887391
C        2.66632925      -0.76816039      -1.59230391
C        1.84530925       0.19587961      -2.33989291
C       -3.09855575       1.55570361       1.07790409
C        1.00070925      -0.54087439       0.14782009
C        0.19601925       0.27235461      -0.48846791
O        1.33316625      -1.48354639       2.28703409
O       -2.58922375       0.78410861      -1.16803391
O       -0.72946975      -0.81808539       1.62964809
C        0.66737225      -0.98589939       1.44856709
C       -2.23103575       1.06308761      -0.12473391
O       -0.81843575       1.00495761       0.27106209
H       -0.92611275      -1.16079239       2.55827909
H        2.94048125      -1.71377839       0.28897209
H       -0.03774575       1.47295861      -2.24592991
H        3.55066425      -1.11799239      -2.20307591
H        2.23167525       0.47956061      -3.29494291
H       -4.22538375       1.32175161       0.96914709
H       -2.65218275       0.89953961       1.97616309
H       -2.94136275       2.65055361       1.46370109
