21
Properties=species:S:1:pos:R:3 -405694.20290067414=T pbc="F F F"
C        1.98438070      -1.25067355      -0.35066099
C        1.34983870       1.42328945      -1.03618199
C        2.73132570      -0.54004155      -1.28961399
C        2.44107570       0.82974545      -1.58427699
C       -3.17860330       1.73634545       0.26856901
C        0.76112070      -0.53550955       0.18785301
C        0.44973970       0.72162845      -0.23889199
O       -1.01174930      -0.85016455       1.88762501
O       -2.07179130       0.12842845      -1.10744899
O        0.40212170      -2.53057255       1.40937401
C       -0.08653530      -1.23114855       1.20290701
C       -1.96540430       0.97185745      -0.21142099
O       -0.68030630       1.43418645       0.19640001
H        0.05268470      -2.87790255       2.30479001
H        2.24979070      -2.27455655      -0.13856499
H        1.20324470       2.46077545      -1.16955899
H        3.70464670      -0.95965055      -1.52276799
H        3.05509970       1.44106645      -2.17122999
H       -4.02760830       1.03690145       0.29216501
H       -2.94485630       2.08953645       1.33332901
H       -3.36518930       2.63086745      -0.45863899
