21
Properties=species:S:1:pos:R:3 -405683.18168253003=T pbc="F F F"
C        1.99973874      -1.00565814      -0.28541748
C        1.09430374       1.34511886      -1.43524548
C        2.66492374      -0.53763914      -1.43119548
C        2.24625774       0.65610286      -1.94024948
C       -3.14610826       1.72491886       0.40134752
C        0.88208474      -0.41800514       0.20020252
C        0.38827574       0.75850886      -0.43003448
O        0.48932074      -2.41193714       1.41736152
O       -2.27681126      -0.33164414      -0.46856248
O       -0.56712026      -0.54862214       2.11456052
C        0.31416574      -1.22292714       1.29261552
C       -2.01999726       0.77848986      -0.15158748
O       -0.79792426       1.39793186      -0.12183948
H       -1.23874626      -1.01840314       2.71025852
H        2.23554774      -1.86760314       0.27586952
H        0.61432574       2.23076386      -1.83073648
H        3.67423474      -0.91511914      -1.75520548
H        2.60751974       1.18212686      -2.90990948
H       -3.35818726       1.28806186       1.51556952
H       -3.01973926       2.86132786       0.37807452
H       -4.15351526       1.54908786      -0.06535448
