21
Properties=species:S:1:pos:R:3 -405695.28854605206=T pbc="F F F"
C        1.79605952      -1.35033997      -0.60409638
C        0.69033352       0.84628603      -1.85400138
C        2.50024252      -0.62343097      -1.58945738
C        1.94381952       0.47526303      -2.23293538
C       -2.47322548       2.30088503       1.13002062
C        0.44316152      -0.88007797      -0.20185638
C       -0.04564848       0.25361603      -0.83467138
O       -1.10051348      -0.85956897       1.62286662
O       -0.14820248       1.82638303       1.31261062
O       -0.03613548      -2.83350997       1.07395862
C       -0.30049948      -1.52354797       0.91310362
C       -1.14859548       1.61211203       0.73283362
O       -1.22326048       0.81086003      -0.48245338
H       -0.79437448      -3.12608097       1.63817562
H        2.32877852      -2.14218897      -0.01021738
H        0.08725052       1.59023103      -2.39840038
H        3.57300452      -0.97641697      -1.90425338
H        2.46298452       0.93735903      -3.13492938
H       -2.86523848       1.63108103       1.85358262
H       -2.20286248       3.22719403       1.61840662
H       -3.33445048       2.39001203       0.43149262
