21
Properties=species:S:1:pos:R:3 -405675.9729770302=T pbc="F F F"
C        1.83707015      -1.20913076      -0.20212917
C        1.58266215       1.52045724      -0.60814617
C        2.91103215      -0.53346876      -0.77882917
C        2.81414515       0.85497624      -0.97243317
C       -2.57577385       1.73516424       0.99669183
C        0.63660315      -0.62313076       0.16141083
C        0.51829915       0.74077724      -0.05424417
O       -1.63125785      -1.20888576       0.79579083
O       -2.08352485       0.89994124      -1.31491017
O        0.04240115      -2.80669676       0.78784183
C       -0.42703985      -1.54095176       0.54506783
C       -1.81912585       1.19700724      -0.19200017
O       -0.56054785       1.36516624       0.42750983
H       -0.68900985      -3.41964476       1.11760483
H        2.03927915      -2.21349076       0.14771983
H        1.52942415       2.57825624      -0.80723017
H        3.87643315      -1.07419776      -0.89979017
H        3.60584715       1.33820124      -1.52575317
H       -3.17365685       0.80061224       1.39248783
H       -1.97630585       1.84633824       2.00977983
H       -3.25643785       2.42437824       0.66788983
