21
Properties=species:S:1:pos:R:3 -405687.6418201209=T pbc="F F F"
C        1.85013323      -1.13034479      -0.39026491
C        0.96584223       1.24333521      -1.43668591
C        2.41200923      -0.65043179      -1.57446591
C        2.08574623       0.61688321      -1.98724591
C       -3.20671377       1.61577121       0.29422209
C        0.79608023      -0.47310979       0.22411209
C        0.33678023       0.76855521      -0.32217091
O        0.76338923      -2.31690179       1.66469509
O       -2.02365777      -0.19673479      -0.86396091
O       -0.36995277      -0.39317579       2.25172309
C        0.37276923      -1.20400179       1.37586609
C       -2.02306677       0.78429821      -0.18020891
O       -0.85806077       1.46134721       0.14622709
H       -0.73298677      -0.91335279       2.94965709
H        2.05593223      -2.01269479       0.15559109
H        0.47889523       2.07137121      -2.05956491
H        3.04440323      -1.19673279      -2.31088391
H        2.50149323       0.92535321      -2.86389091
H       -3.04101577       2.58707921       0.80438109
H       -3.63580177       1.77107121      -0.72940991
H       -3.92059277       1.00339521       0.87839409
