21
Properties=species:S:1:pos:R:3 -405690.11386555067=T pbc="F F F"
C        1.80493476      -1.13612860      -0.46384867
C        0.89625676       1.22634940      -1.44168167
C        2.52453976      -0.67229860      -1.56062767
C        1.94051176       0.52310340      -2.11411267
C       -3.16833424       1.37667740       0.48009933
C        0.79736676      -0.53656160       0.28543133
C        0.33207176       0.71176840      -0.23326167
O        0.95207476      -2.18292460       1.97648533
O       -1.94259724       0.20922940      -1.28365867
O       -0.56717324      -0.57111560       2.11803833
C        0.34367976      -1.20941960       1.52471133
C       -2.03241524       0.97498740      -0.35825467
O       -0.84566324       1.39587440       0.20717333
H       -0.76071824      -0.94337960       3.00516633
H        2.03081576      -2.08964560      -0.01189067
H        0.42246476       2.18476440      -1.82149067
H        3.52040476      -1.11027560      -1.82918767
H        2.19052276       0.91357940      -3.11042067
H       -3.05883524       2.38791440       0.86797833
H       -4.10379224       1.17915540      -0.10354867
H       -3.04077324       0.72786440       1.32182733
