21
Properties=species:S:1:pos:R:3 -405686.80323211174=T pbc="F F F"
C        1.95795825      -1.12127997      -0.37881142
C        1.16452325       1.32992403      -1.42805742
C        2.83328925      -0.36291097      -1.22925842
C        2.49207125       0.83983903      -1.76866242
C       -3.07694475       1.57026403       0.46490658
C        0.71239725      -0.54054097       0.16284058
C        0.31671725       0.69707003      -0.48528042
O       -0.76393575      -0.40955597       2.03496958
O       -2.07427575      -0.40644497      -0.74748142
O        0.30594725      -2.39074697       1.71117458
C        0.06270125      -1.02765097       1.35709858
C       -1.97479875       0.71198603      -0.29181342
O       -0.81307775       1.40936103      -0.21595242
H       -0.37923075      -2.35613797       2.41627058
H        2.47361325      -1.92576997       0.08552258
H        0.90339325       2.31676103      -1.82252542
H        3.75722425      -0.91116097      -1.41448142
H        3.05346525       1.29011103      -2.48978042
H       -2.81562775       2.50077703       0.78580058
H       -3.92461075       1.63211203      -0.20842142
H       -3.41204775       1.01409103       1.31329558
