21
Properties=species:S:1:pos:R:3 -405689.3866563279=T pbc="F F F"
C        1.58813776      -1.59041433      -0.86841000
C        1.02050276       1.10154867      -1.22912100
C        2.22536576      -0.82768433      -1.85646300
C        2.01644876       0.51754067      -1.98230600
C       -2.67936024       2.36583467       0.63094200
C        0.50006376      -1.03297033      -0.14344700
C        0.21902976       0.37021367      -0.31914300
O       -1.05313924      -1.32477733       1.65084700
O       -0.34332224       2.50347167       1.20466400
O       -0.03499324      -3.11448733       0.65675700
C       -0.20894324      -1.74821433       0.87011400
C       -1.25383224       1.91866267       0.76672500
O       -1.06295124       0.91311567      -0.17137500
H       -0.50858124      -3.67778033       1.31865300
H        1.98255276      -2.58628533      -0.62841000
H        0.86818176       2.18354367      -1.34135900
H        2.96030976      -1.30189433      -2.46760900
H        2.65995076       1.15682167      -2.65813800
H       -2.74201024       3.27105367       1.34983100
H       -2.95185424       2.68010967      -0.42096400
H       -3.49013424       1.71097167       1.01400600
