21
Properties=species:S:1:pos:R:3 -405688.16719051293=T pbc="F F F"
C        1.77845619      -1.23324330      -0.46424561
C        0.82986219       1.15108070      -1.49911361
C        2.46765719      -0.56076530      -1.47017161
C        1.90155519       0.52031270      -2.04718761
C       -3.14953381       1.40799770       0.47631539
C        0.75338019      -0.48057830       0.19920439
C        0.29931619       0.75270170      -0.32675761
O        1.01269119      -2.19799630       1.97783639
O       -1.91251681       0.21316170      -1.29350061
O       -0.69063781      -0.57106530       2.17107339
C        0.45413419      -1.21504930       1.51194839
C       -1.95620581       0.95370070      -0.35820761
O       -0.78320781       1.37098670       0.24464339
H       -0.83290381      -1.27163430       2.87136739
H        2.29102119      -2.07370630      -0.03626161
H        0.41093619       2.00535070      -2.08995461
H        3.41462419      -1.02891330      -1.84464461
H        2.40390819       0.99935370      -2.89394961
H       -2.94149481       2.46558970       0.66156339
H       -4.19540281       1.37265470       0.08174839
H       -3.10747381       0.90361470       1.41797739
