21
Properties=species:S:1:pos:R:3 -405682.81591798604=T pbc="F F F"
C        2.03843871      -1.20783452      -0.43433744
C        0.82932771       1.16124248      -1.47204244
C        2.70953871      -0.44024152      -1.45435444
C        2.05719771       0.66121748      -2.00713444
C       -2.78188329       1.85379148       0.84413356
C        0.85731871      -0.76269552       0.13425356
C        0.43489871       0.59798148      -0.34713944
O        0.54582971      -1.24931652       2.46149356
O       -2.26255329       0.52072548      -1.01076044
O       -0.93391829      -2.05955752       0.95354956
C        0.17904771      -1.35593752       1.30751056
C       -1.89493229       1.19758648      -0.10390244
O       -0.58694829       1.22976048       0.36294856
H       -1.41739929      -2.32091052       1.71075656
H        2.58368471      -2.10202252       0.04647456
H        0.26656471       2.01722748      -1.86047244
H        3.66558771      -0.60358552      -2.02468644
H        2.56458871       1.08075748      -2.83607944
H       -2.77595329       1.42863048       1.77389656
H       -2.41605929       2.89801448       0.87623756
H       -3.82288529       2.03218248       0.46288556
