21
Properties=species:S:1:pos:R:3 -405689.69792569074=T pbc="F F F"
C        2.01183219      -1.19717173      -0.44412749
C        0.85083519       0.98245227      -1.58118849
C        2.37028719      -0.83717173      -1.70811949
C        1.71697219       0.27147827      -2.35557449
C       -2.95562581       1.94233027       0.81194651
C        1.00004319      -0.53241473       0.27728451
C        0.31476619       0.51763827      -0.38927949
O        1.24787619      -1.25121773       2.54412451
O       -2.40422281       0.64827427      -1.22905349
O       -0.78026181      -1.58076673       1.53790051
C        0.55803819      -1.18609673       1.53965051
C       -2.10081881       1.16174227      -0.20722749
O       -0.70508681       1.16945227       0.31166051
H       -0.96342181      -2.20701373       2.31413751
H        2.51467719      -2.12406873       0.02942951
H        0.17571919       1.76565927      -1.99250849
H        2.87683519      -1.62247073      -2.23100249
H        1.95757719       0.47090527      -3.42289949
H       -4.00455981       1.79170327       0.64642851
H       -2.67036681       1.60139127       1.84490051
H       -2.80588181       3.05207827       0.88816951
