21
Properties=species:S:1:pos:R:3 -405672.47951735154=T pbc="F F F"
C        1.61021467      -1.55282542      -0.80079085
C        1.01910767       1.05904158      -1.25814885
C        2.47556867      -0.81662442      -1.55245685
C        2.12177767       0.47297458      -1.91448185
C       -2.52990733       2.23854258       1.43805515
C        0.37493567      -1.05794542      -0.37372185
C        0.11832267       0.32541058      -0.47286785
O       -1.16509933      -1.39375242       1.53721415
O       -0.45358233       2.95344358       0.46247415
O       -0.03102433      -3.08059642       0.56242015
C       -0.39401633      -1.85758442       0.80948815
C       -1.27496333       2.05721658       0.53589115
O       -0.98695533       0.73809258       0.16779415
H       -0.24430433      -3.69765542       1.24100015
H        1.77031367      -2.65751542      -0.69296285
H        0.54813367       2.06878458      -1.52072385
H        3.34579067      -1.30152042      -1.90651885
H        2.65199167       1.10767358      -2.67333185
H       -3.37253133       1.60054158       1.18889115
H       -2.10488133       1.72704758       2.35552315
H       -2.67320433       3.23886658       1.41659715
