21
Properties=species:S:1:pos:R:3 -405687.7937175717=T pbc="F F F"
C        1.98511569      -1.25173825      -0.29639529
C        1.45818669       1.40162075      -0.85530329
C        3.02830369      -0.53546525      -0.77317129
C        2.61961769       0.81203375      -1.09423529
C       -3.06461831       1.81040075       0.47030671
C        0.69858169      -0.63078225       0.15227271
C        0.45995969       0.69593375      -0.09359929
O       -1.18917531      -1.13390325       1.66664071
O       -1.92385131       0.84992975      -1.39878429
O       -0.05913531      -2.89981625       0.78201371
C       -0.32751531      -1.51938925       0.93785771
C       -1.82694731       1.35998475      -0.34415029
O       -0.61813031       1.40787375       0.37838671
H       -0.76901231      -3.41429925       1.30419871
H        1.98043169      -2.29141625      -0.01680729
H        1.46546269       2.50010975      -0.90298129
H        3.97935369      -0.97182825      -0.92741629
H        3.53039069       1.34189275      -1.39743529
H       -3.83977231       2.04095575      -0.24849529
H       -3.24687231       0.83239875       0.92451771
H       -2.84478831       2.63570675       1.17726671
