21
Properties=species:S:1:pos:R:3 -405684.22070591577=T pbc="F F F"
C        2.14102835      -1.14321490      -0.35677189
C        0.85736835       1.14232910      -1.57772189
C        2.59008035      -0.59722290      -1.55612789
C        2.01993335       0.52723610      -2.07923389
C       -2.93010165       2.03545410       0.60550011
C        0.89612535      -0.62941090       0.15500711
C        0.25728635       0.48296310      -0.47986989
O        1.18590735      -1.96093290       2.21159711
O       -2.67809265       0.24032310      -1.10859089
O       -0.73004665      -0.98629990       1.99048211
C        0.52951035      -1.19894890       1.56786611
C       -2.19415265       1.00978010      -0.30014589
O       -0.80958065       1.18875410       0.06927811
H       -0.77205365      -1.69190290       2.63744711
H        2.55191235      -2.05067490      -0.06080089
H        0.40354135       2.11048310      -1.81079889
H        3.40340235      -1.18989790      -2.09992989
H        2.33007635       0.88391710      -3.16841389
H       -3.94261465       1.97719410       0.17999611
H       -2.98650665       1.69563110       1.60940311
H       -2.48737765       2.96367610       0.40098611
