21
Properties=species:S:1:pos:R:3 -405690.2833536385=T pbc="F F F"
C        2.12142535      -1.01803293      -0.19763613
C        0.93457835       1.11305907      -1.55590713
C        2.78340235      -0.60897393      -1.38192813
C        2.12714335       0.54889307      -1.91796813
C       -2.99950565       1.73124207       0.49251087
C        0.89023435      -0.48260593       0.25186987
C        0.26728935       0.58707707      -0.48505413
O       -1.01790365      -0.92989893       1.81950487
O       -2.38948865       0.01485107      -1.21741213
O        1.11334535      -1.78138793       2.27471387
C        0.14095735      -1.10372693       1.48408687
C       -2.16579865       0.87610107      -0.40550713
O       -0.82539965       1.19925307      -0.05912913
H        0.62054135      -1.93955293       3.11623887
H        2.54508635      -1.70692693       0.58812587
H        0.65319735       2.06310507      -1.91788313
H        3.76099735      -0.99661593      -1.78775313
H        2.69423035       1.02479207      -2.70075513
H       -3.36784465       1.12693707       1.34801387
H       -2.46078965       2.51153707       1.00238187
H       -3.75227365       2.11479207      -0.12673913
