21
Properties=species:S:1:pos:R:3 -405693.72684988845=T pbc="F F F"
C        1.81899351      -1.31801903      -0.29155124
C        1.74045951       1.48449797      -0.17945624
C        2.87078951      -0.53586803      -0.87957524
C        2.81955051       0.88326597      -0.85152824
C       -2.79665249       1.94685197       0.67183776
C        0.62164851      -0.66447203       0.09865476
C        0.54132151       0.80791897       0.10088076
O       -1.65650549      -1.20323303       0.72824476
O       -1.82703749       0.79768597      -1.25188424
O       -0.06975949      -2.85454803       0.57215176
C       -0.47254849      -1.56963803       0.53198676
C       -1.75698749       1.27510097      -0.16569224
O       -0.54482249       1.30585197       0.62410276
H       -0.87476949      -3.34340603       0.77765476
H        1.77704451      -2.41587403      -0.14333224
H        1.85591451       2.54628197      -0.05454124
H        3.64985451      -1.07539403      -1.42850424
H        3.60457851       1.47974697      -1.15207324
H       -3.60275949       2.22551897       0.05919276
H       -3.23271649       1.33449297       1.51485776
H       -2.27394949       2.76341697       1.23531576
