21
Properties=species:S:1:pos:R:3 -405677.9454317533=T pbc="F F F"
C        1.96805289      -1.05630380      -0.39954536
C        0.96005589       1.26245520      -1.47258136
C        2.70899889      -0.38066680      -1.43931936
C        2.20298489       0.82080020      -1.90680136
C       -2.93338311       2.09719920       0.22672764
C        0.83592789      -0.50763580       0.31538964
C        0.28863489       0.57910020      -0.38474736
O        0.83189089      -2.50406180       1.64023164
O       -2.52193911       0.01535120      -0.96026836
O       -0.47874111      -0.79570980       2.28108764
C        0.34473889      -1.42821780       1.41646664
C       -2.15808511       0.98000120      -0.33286636
O       -0.92656811       1.08480420       0.14659064
H       -0.97566411      -1.46729480       2.84615264
H        2.47442189      -2.02370780       0.03653164
H        0.31180589       2.13716520      -1.67814536
H        3.71946089      -0.60974580      -1.52274036
H        2.67050789       1.37701520      -2.76356936
H       -3.97379211       2.06078420      -0.18547936
H       -2.93448211       2.22406720       1.38312264
H       -2.38881211       3.03095120      -0.07964036
