21
Properties=species:S:1:pos:R:3 -405687.5111229515=T pbc="F F F"
C        1.82319779      -1.32068172      -0.40314708
C        1.53496179       1.48717228      -0.54917808
C        2.71571479      -0.59095172      -1.11202308
C        2.61912079       0.86806728      -1.21047208
C       -2.91353921       1.79046628       0.51433692
C        0.73063779      -0.73426872       0.18023792
C        0.52835279       0.65696528      -0.03580408
O       -1.49797621      -1.30539572       1.18540192
O       -1.92064021       0.96930428      -1.51604108
O        0.22769579      -2.72336372       1.43216392
C       -0.29970121      -1.58849272       1.00172392
C       -1.79111921       1.39807928      -0.40583608
O       -0.57664321       1.38712328       0.37182992
H       -0.38229521      -3.26147772       2.02448492
H        2.19292179      -2.22146972      -0.00072408
H        1.35717379       2.57775328      -0.50791508
H        3.73728579      -1.00287172      -1.27802508
H        3.32916379       1.30273628      -1.89823208
H       -3.88424721       1.51798428       0.05569092
H       -2.67350621       1.29437128       1.47739392
H       -2.79306121       2.92103628       0.79783892
