21
Properties=species:S:1:pos:R:3 -405676.0994329282=T pbc="F F F"
C        1.98955592      -1.05250333      -0.37368608
C        0.95350892       1.08318367      -1.60695608
C        2.51883692      -0.75802233      -1.55936808
C        2.03465292       0.42213867      -2.24454208
C       -3.05428708       1.85779167       0.64956692
C        0.91694992      -0.46257633       0.32593692
C        0.33859292       0.62668467      -0.38499908
O        1.28345592      -1.91217933       2.07780492
O       -2.48755908       0.25122767      -1.09159908
O       -0.85316408      -0.98520733       1.89680492
C        0.41976692      -1.21458433       1.51700092
C       -2.14317908       1.05430667      -0.26658608
O       -0.78678508       1.21235467       0.19584692
H       -0.98463708      -1.30407033       2.78885492
H        2.65147892      -1.92410833       0.09029392
H        0.43953992       2.03213167      -1.92284208
H        3.29058692      -1.37231533      -1.99069108
H        2.38853492       0.77673167      -3.10974808
H       -4.05588108       1.60531267       0.14939192
H       -3.19864908       1.49192767       1.69234492
H       -2.71627808       2.91789067       0.39484992
