21
Properties=species:S:1:pos:R:3 -405683.7749093353=T pbc="F F F"
C        1.91137091      -1.16248614      -0.46438690
C        0.91935691       1.11179886      -1.51276990
C        2.54644991      -0.54374014      -1.51214390
C        1.97220991       0.56820986      -2.12676690
C       -3.05799409       1.62850386       0.43064910
C        0.82120991      -0.55842114       0.14213810
C        0.31503591       0.62964686      -0.34836190
O        0.57806891      -2.28746514       1.69360610
O       -2.23070909      -0.15161614      -0.86593490
O       -0.32864209      -0.24837414       2.26785310
C        0.39455291      -1.08080714       1.42564210
C       -1.95938009       0.79222486      -0.16676990
O       -0.81683009       1.34033686       0.17557410
H       -0.78233709      -0.78574614       2.92482710
H        2.38357991      -2.06531514      -0.16359090
H        0.68157791       2.09691986      -1.98744990
H        3.54014691      -0.76904514      -2.04891690
H        2.46232491       1.01738786      -3.00864490
H       -3.56870609       2.09493686      -0.40639090
H       -3.62112809       0.85841986       1.00233010
H       -2.68122809       2.44206986       0.98131710
