21
Properties=species:S:1:pos:R:3 -405691.52021058294=T pbc="F F F"
C        1.97229508      -1.10190500      -0.24712263
C        1.19967108       1.42419100      -1.35468463
C        2.67106308      -0.48476900      -1.25656963
C        2.28857908       0.72177200      -1.79834263
C       -2.96161592       1.44156600       0.50576537
C        0.84016908      -0.44355100       0.24238837
C        0.43511408       0.78455100      -0.33598963
O       -1.08917992      -0.66596200       1.73476337
O       -1.95081092      -0.17933700      -1.06533363
O        0.45770508      -2.32342000       1.75138237
C       -0.02106592      -1.08351400       1.35804237
C       -1.88494892       0.79846000      -0.29460163
O       -0.75032492       1.50253300       0.10553537
H       -0.36595592      -2.79597600       2.16614037
H        2.15556408      -2.13676300       0.08510937
H        0.67286508       2.24474000      -1.76043563
H        3.45599408      -1.09509100      -1.84445663
H        2.66259208       1.06070600      -2.77678163
H       -2.94755792       2.54212900       0.48436537
H       -3.78536692       1.05202100      -0.09756263
H       -3.00538492       1.08183800       1.52564037
