21
Properties=species:S:1:pos:R:3 -405685.9963620771=T pbc="F F F"
C        1.47294340      -1.56312916      -0.96853320
C        0.86795240       1.08835884      -1.25163720
C        2.46468640      -0.76894116      -1.62070820
C        2.12628440       0.58347984      -1.61097020
C       -2.65782560       2.32009884       0.90141480
C        0.36814340      -1.03621216      -0.26077820
C        0.01260040       0.31801284      -0.52566120
O       -0.76046660      -1.33162416       1.88497780
O       -0.24874960       2.70667384       0.81966380
O       -0.18559260      -3.24973016       0.47252780
C       -0.26335760      -1.82560816       0.85562880
C       -1.18641960       2.02830084       0.66712680
O       -1.16226460       0.81636784      -0.16330820
H       -0.47475560      -3.70415116       1.25519580
H        1.65369940      -2.62529016      -0.81298420
H        0.72911840       2.08555384      -1.61556520
H        3.47501140      -1.24225716      -1.80449420
H        2.85959440       1.28619084      -2.06475820
H       -2.69446460       3.28148684       1.41181780
H       -3.08421460       2.59641384      -0.12490420
H       -3.21699960       1.49253684       1.33757480
