21
Properties=species:S:1:pos:R:3 -405687.4736305239=T pbc="F F F"
C        1.45623395      -1.53822668      -0.76281161
C        1.07319695       1.03985332      -1.84742661
C        2.07164195      -1.10491668      -1.94154461
C        1.90607495       0.17780332      -2.46028961
C       -2.67916905       1.67012732       1.11825939
C        0.42326795      -0.70264068      -0.22770761
C        0.28748895       0.58061132      -0.73949961
O       -1.57641705      -1.27061768       0.90088339
O       -0.22404905       1.60506332       1.78037439
O        0.43110895      -1.99559968       1.63459239
C       -0.37051705      -1.28559268       0.85780139
C       -1.12439705       1.50120432       0.92999639
O       -0.86373605       1.30791032      -0.35971761
H       -0.04631105      -2.25024568       2.46009539
H        1.60338295      -2.35326868      -0.15645861
H        1.21460495       2.02873932      -2.23373061
H        2.88948195      -1.67996468      -2.36859561
H        2.52225795       0.46348932      -3.35798061
H       -2.86928605       2.34279832       2.00435539
H       -2.91760105       2.26330332       0.19556239
H       -3.19798205       0.76422132       1.07604839
