21
Properties=species:S:1:pos:R:3 -405700.8533515412=T pbc="F F F"
C        1.95124578      -1.14814174      -0.44750258
C        0.75179978       1.03983326      -1.74476358
C        2.37539378      -0.83554174      -1.72887058
C        1.82457778       0.28979926      -2.33984458
C       -3.17833522       1.74265126       0.63111242
C        0.90717478      -0.45760574       0.17779342
C        0.32287878       0.65406226      -0.48165658
O        1.33373178      -1.70297574       2.16605242
O       -2.20063222      -0.12232174      -0.63380958
O       -0.71612522      -0.77494874       1.93700142
C        0.50048178      -1.04920574       1.52327942
C       -2.09311522       0.93685126      -0.08048958
O       -0.74197422       1.47948426       0.06067742
H       -0.87408922      -1.35469274       2.76339242
H        2.41166778      -1.90226574       0.15830542
H        0.47177578       1.98772826      -2.16962258
H        3.22769278      -1.35524874      -2.17239258
H        2.00936878       0.54192626      -3.35736458
H       -3.88622222       1.06000526       1.06560642
H       -2.77645122       2.55992726       1.30340242
H       -3.71627922       2.28676026      -0.14086658
