21
Properties=species:S:1:pos:R:3 -405692.2102221324=T pbc="F F F"
C        1.59002082      -1.49095374      -0.73406322
C        0.77975782       0.93048826      -1.68544822
C        2.54566182      -0.78332074      -1.47755022
C        2.00683582       0.34122326      -2.10365122
C       -2.58135018       2.33924226       1.00305778
C        0.37637582      -0.90833674      -0.24982722
C        0.00875582       0.38610526      -0.66423622
O       -1.03958218      -1.31138274       1.73746278
O       -0.17822918       2.38262926       1.20259278
O        0.10984082      -2.96626674       0.84089378
C       -0.26820418      -1.68030974       0.86684178
C       -1.19616518       1.93969526       0.70899378
O       -1.27534718       0.92070326      -0.36196022
H       -0.52168618      -3.53211874       1.33685278
H        1.72116982      -2.48777674      -0.34100622
H        0.43703782       1.90122626      -2.04274222
H        3.51297582      -1.30086974      -1.82200122
H        2.52475682       0.64217126      -2.98139022
H       -2.47329718       2.95356326       1.91369278
H       -2.90388918       2.94782026       0.16964278
H       -3.30845018       1.55315126       1.13172878
