21
Properties=species:S:1:pos:R:3 -405685.1410209613=T pbc="F F F"
C        1.90805002      -1.31582952      -0.26023503
C        1.34326902       1.39046648      -0.32789003
C        2.63762002      -0.44834952      -1.06313503
C        2.33617602       0.83931048      -1.10454803
C       -2.78704798       2.42134348       0.38703097
C        0.70362602      -0.78521652       0.30172397
C        0.43970302       0.60856648       0.22186797
O       -1.45374498      -1.62590752       0.67694597
O       -1.60060398       1.22808948      -1.41466403
O        0.33867802      -3.06790952       1.07047997
C       -0.26061498      -1.78465552       0.74293797
C       -1.68177798       1.67683248      -0.22231703
O       -0.76802198       1.19830748       0.73904397
H       -0.44584498      -3.59985452       1.40838697
H        2.16921002      -2.36587552      -0.28582503
H        1.17759402       2.44380948      -0.38451303
H        3.47090702      -0.82138852      -1.68816603
H        2.84814102       1.48431448      -1.81894903
H       -3.10736098       3.20742448      -0.33604603
H       -3.62335198       1.77113548       0.51904897
H       -2.43637598       2.87889248       1.34708597
