21
Properties=species:S:1:pos:R:3 -405695.35731237807=T pbc="F F F"
C        1.96844235      -1.29860713      -0.17460157
C        1.48106935       1.49442787      -0.58355357
C        2.95163235      -0.43878813      -0.72169257
C        2.75242135       0.92410887      -0.96593157
C       -2.83562765       1.92760687       0.48232343
C        0.83319335      -0.76917213       0.27590643
C        0.60451535       0.60814787       0.03313743
O       -1.30748565      -1.09867413       1.46024943
O       -1.95284565       0.76144187      -1.35191657
O       -0.41136865      -2.81968413       0.32148743
C       -0.38624265      -1.48597113       0.82743043
C       -1.73261965       1.23326987      -0.29007557
O       -0.57511565       1.26689687       0.42360643
H       -1.01464465      -3.25724213       0.92045243
H        2.13428835      -2.34695213      -0.09286857
H        1.20020735       2.47988387      -0.65328357
H        3.93862135      -0.93346913      -1.03029757
H        3.46511335       1.63376687      -1.41466657
H       -3.08397365       2.95537287       0.14966543
H       -3.76105365       1.34438187       0.33245143
H       -2.59473665       1.98447787       1.54465343
