21
Properties=species:S:1:pos:R:3 -405687.32615858066=T pbc="F F F"
C        1.93214267      -1.01263289      -0.46638296
C        1.10506167       1.40849011      -1.35219996
C        2.67985667      -0.40396589      -1.53330896
C        2.25540067       0.89970311      -1.99047696
C       -3.16561433       1.73810911      -0.06943396
C        0.80284667      -0.42807589       0.20148404
C        0.38138867       0.77224211      -0.33644496
O        0.02744067      -2.48227089       1.33021204
O       -2.14167933      -0.46826489      -0.38372096
O       -0.13994933      -0.51934189       2.43864104
C        0.19074167      -1.29892189       1.33576604
C       -2.00173833       0.75406411      -0.12056796
O       -0.79353533       1.31298711       0.10911404
H       -0.72261533      -1.11682989       3.03975604
H        2.25866167      -2.05576689      -0.13118196
H        0.99541367       2.46075311      -1.62550096
H        3.41512767      -0.99136689      -2.10676496
H        2.81767367       1.22086511      -2.90735496
H       -2.68022533       2.69995711      -0.03095296
H       -3.68782533       1.49073311      -0.98608396
H       -3.79819833       1.60124311       0.86707204
