21
Properties=species:S:1:pos:R:3 -405686.4204631239=T pbc="F F F"
C        1.82321958      -1.11997579      -0.40582401
C        0.99060458       1.33254621      -1.49071801
C        2.47741758      -0.63974179      -1.51323901
C        2.03834158       0.58115521      -2.05094201
C       -3.27922042       1.59572321       0.31557399
C        0.75501958      -0.42213279       0.18390799
C        0.32379058       0.76882221      -0.39222601
O        0.74849858      -2.36756979       1.71193999
O       -2.01402642      -0.14204979      -0.91500801
O       -0.35491542      -0.42387479       2.23179299
C        0.35796558      -1.20924079       1.49939599
C       -2.04823142       0.81495721      -0.15468601
O       -0.78529642       1.37090121       0.14443899
H       -0.39071142      -0.80367579       3.10085399
H        2.21448158      -2.02989479      -0.05389901
H        0.39817158       2.10229321      -2.06796801
H        3.24505158      -1.31418279      -1.94799201
H        2.54670958       1.05654421      -2.79773901
H       -2.89782242       2.53870121       0.78438999
H       -3.85390342       1.94947621      -0.55670001
H       -4.02762242       1.03345921       0.91022399
