21
Properties=species:S:1:pos:R:3 -405671.19266475627=T pbc="F F F"
C        2.07903590      -0.96194193      -0.31414815
C        0.72578690       0.95589107      -1.68146615
C        2.51587690      -0.58063493      -1.55530515
C        1.82572690       0.45930607      -2.37264315
C       -2.91661010       1.74363307       0.63165685
C        0.94539990      -0.44773893       0.29122085
C        0.31480890       0.66745607      -0.37924315
O        1.04044590      -2.01186693       2.19242685
O       -2.06654610       0.09318707      -0.93705515
O       -1.09015410      -0.90200493       1.64735685
C        0.33045090      -1.19904893       1.45930085
C       -1.91138110       0.93698907      -0.10614715
O       -0.63122010       1.35712707       0.24966385
H       -1.36766910      -1.39403093       2.45577985
H        2.62704990      -1.61461593       0.21725985
H        0.00212590       1.65864307      -2.07996415
H        3.29471590      -1.04947493      -2.02240315
H        2.07787590       0.92416407      -3.35109215
H       -3.33171810       2.46991807       0.02305685
H       -3.77550110       1.18237907       1.14026885
H       -2.46739310       2.31045707       1.53245085
