21
Properties=species:S:1:pos:R:3 -405696.8174845005=T pbc="F F F"
C        1.97620363      -1.24445144      -0.40758763
C        0.83327763       1.20742956      -1.39768863
C        2.39462363      -0.69828644      -1.57387863
C        1.87337763       0.50682156      -2.05214263
C       -3.25796637       1.80534356       0.32356437
C        0.86671363      -0.57554444       0.29451137
C        0.22720563       0.53444256      -0.32038263
O        1.46462163      -1.93637844       2.15667437
O       -2.23845637       0.55339556      -1.46621763
O       -0.66326137      -1.03913244       2.11591037
C        0.59089663      -1.27333444       1.62720537
C       -2.12023537       1.12580756      -0.41019763
O       -0.92195237       1.10608456       0.27106037
H       -0.54815537      -1.30716544       3.06108837
H        2.63512963      -1.93811144       0.21075637
H        0.30192363       2.12870256      -1.83989363
H        3.23186163      -1.17123344      -2.13791063
H        2.30335663       0.99059056      -2.93265463
H       -3.51539137       2.72760756      -0.16969263
H       -4.09704937       1.08569756       0.13631137
H       -3.16572337       1.84088256       1.46523337
