21
Properties=species:S:1:pos:R:3 -405682.64475487836=T pbc="F F F"
C        2.32519794      -0.87555737       0.01759890
C        0.68483994       0.69165663      -1.77332210
C        2.71884094      -0.57887937      -1.35461110
C        1.89588194       0.25111863      -2.19075110
C       -3.11508106       1.87426363       0.31221490
C        0.99146594      -0.50984337       0.29527790
C        0.15767294       0.27671863      -0.49349710
O       -0.73795106      -1.37938237       1.69231390
O       -2.51498306       0.33388763      -1.43312210
O        1.29480594      -1.00949237       2.64102690
C        0.38020594      -0.98861137       1.59655290
C       -2.21511806       0.89808363      -0.42640510
O       -0.89953606       0.94488763       0.22515290
H        0.91123094      -1.04167637       3.47866490
H        3.01046594      -1.30746737       0.70441590
H        0.13136094       1.39832263      -2.30275410
H        3.72152094      -0.87600637      -1.63119810
H        2.17626094       0.67262563      -3.17551510
H       -3.45952306       1.48323963       1.33128490
H       -2.77257206       2.96482663       0.24169190
H       -3.89613906       1.95362363      -0.41946710
