21
Properties=species:S:1:pos:R:3 -405683.24270991684=T pbc="F F F"
C        1.53506455      -1.42491022      -0.69611096
C        1.03709255       1.04604778      -1.89685096
C        2.14543955      -1.10540122      -1.94368996
C        1.88483755       0.16399978      -2.46720396
C       -2.57565545       1.58407878       1.17043704
C        0.53897655      -0.57151322      -0.10534596
C        0.20474755       0.60724678      -0.78263396
O       -1.60500345      -1.30921422       0.96111504
O       -0.24406345       1.57083378       1.73480204
O        0.31723055      -2.16458222       1.70952904
C       -0.38115045      -1.36415622       0.87762804
C       -1.07506345       1.66284378       0.88799604
O       -0.85831445       1.47026278      -0.47909196
H       -0.29942145      -2.84044722       2.07216104
H        1.53173955      -2.45650822      -0.16228496
H        0.85306855       1.83668478      -2.62071196
H        2.72358055      -1.84360522      -2.62771496
H        2.25878055       0.41422278      -3.42137396
H       -2.84881545       2.07361478       2.12206404
H       -3.07022145       2.08567078       0.32444904
H       -2.67795445       0.47453478       1.00688104
