21
Properties=species:S:1:pos:R:3 -405684.98477247916=T pbc="F F F"
C        2.16283808      -0.94655232       0.10493447
C        1.19638708       1.27145168      -1.37689753
C        2.93756008      -0.37201532      -0.98736453
C        2.44658608       0.66870368      -1.79581053
C       -2.99858992       1.65794568       0.60181047
C        0.91363008      -0.41859032       0.38558047
C        0.49440908       0.76975768      -0.32536053
O       -1.04408192      -0.81009432       1.84143447
O       -2.15231192       0.02878068      -1.02243753
O        0.02463608      -2.56644832       0.94533847
C       -0.11366792      -1.23771232       1.16388747
C       -1.91577192       0.91810268      -0.21763453
O       -0.65723892       1.37342868       0.16266647
H       -0.87531792      -2.82062232       1.23204747
H        2.67282408      -1.59925032       0.72798347
H        0.96962608       2.21283368      -2.00471453
H        3.92288808      -0.91142532      -0.98451653
H        2.90539208       1.18961368      -2.62324153
H       -2.65725892       1.77461768       1.64801147
H       -3.15717092       2.80521368       0.24648747
H       -4.01524292       1.16535568       0.30930447
