21
Properties=species:S:1:pos:R:3 -405681.0702813956=T pbc="F F F"
C        1.93770302      -1.36460791      -0.48122450
C        0.96606702       1.18912709      -1.54758550
C        2.53160002      -0.79987091      -1.53004450
C        2.06674902       0.50428509      -1.96430850
C       -3.14761298       1.49098209       0.74138250
C        0.74625002      -0.68047591       0.04046050
C        0.20826302       0.51323909      -0.45126650
O        1.23125802      -1.80557291       2.14794950
O       -2.40210798       0.56817609      -1.34921850
O       -0.68771198      -0.77459691       2.06368050
C        0.51955102      -1.18282491       1.47030450
C       -2.09209998       1.09226909      -0.29101850
O       -0.82321498       1.23600409       0.21915850
H       -0.63533998      -1.04397791       3.00782450
H        2.15214302      -2.45592291      -0.11668450
H        0.79509202       2.13306209      -2.05115950
H        3.39135102      -1.20728491      -2.05705450
H        2.59651402       0.95663509      -2.74330550
H       -4.21202398       1.08594109       0.36485150
H       -2.83175098       1.19522009       1.71191950
H       -3.18374998       2.57738009       0.76253850
