21
Properties=species:S:1:pos:R:3 -405696.36713153485=T pbc="F F F"
C        2.11894979      -1.16031772      -0.15135001
C        1.10832779       1.22836528      -1.05706001
C        2.84071079      -0.44768972      -1.03663201
C        2.38054779       0.78895528      -1.50806201
C       -3.13600821       2.08275528       0.21614099
C        0.80165279      -0.68578472       0.23111899
C        0.25658979       0.49984128      -0.21925001
O       -0.66262521      -0.99329572       2.12789899
O       -2.12658321       0.90024828      -1.62987301
O        0.42730779      -2.83433272       1.34821399
C        0.10633179      -1.47472972       1.29184199
C       -2.06940021       1.24307028      -0.47390601
O       -0.92323621       1.08576228       0.27583999
H        0.03117279      -3.15503472       2.14632499
H        2.49992979      -2.09912072       0.14220899
H        0.68392679       2.20281728      -1.46052801
H        3.86867479      -0.72287472      -1.37570701
H        2.88798379       1.41841028      -2.27601201
H       -2.79827721       2.75912528       1.05574899
H       -3.65595821       2.76444728      -0.38200701
H       -3.86170121       1.35973728       0.70468999
