21
Properties=species:S:1:pos:R:3 -405682.69751261367=T pbc="F F F"
C        1.54576018      -1.31389815      -0.69007964
C        0.84091918       0.90667985      -1.84223564
C        2.28874118      -0.99096415      -1.83258264
C        1.99304918       0.28622185      -2.36278064
C       -2.40813282       2.56809585       1.13193536
C        0.41085618      -0.69470315      -0.13260564
C       -0.05274782       0.43037885      -0.83712864
O       -1.55633782      -1.73934815       0.68473436
O       -0.27842782       1.15950785       1.66834536
O        0.54910318      -1.94129315       1.82238536
C       -0.35566582      -1.47319515       0.82151136
C       -1.14179682       1.56705485       0.94638836
O       -1.05266982       1.23921685      -0.44586064
H       -0.06745082      -2.49255415       2.39754836
H        1.90405918      -2.22932615      -0.23335564
H        0.51663918       1.79982985      -2.38292664
H        3.15774518      -1.56124815      -2.05533864
H        2.42141918       0.88855285      -3.17551164
H       -2.10770482       3.48406285       0.58978936
H       -3.29802482       2.26318685       0.53753436
H       -2.57665782       2.88418285       2.25466736
