21
Properties=species:S:1:pos:R:3 -405690.5650119374=T pbc="F F F"
C        2.09774596      -1.10782303      -0.13998088
C        0.95621796       1.06672197      -1.62251588
C        2.70501196      -0.65465603      -1.33279188
C        2.24502096       0.48846897      -2.02580488
C       -3.02132204       1.32959897       0.72649712
C        0.88440096      -0.51261103       0.27585212
C        0.26761696       0.55280897      -0.50293988
O       -0.99020304      -1.15590503       1.62281712
O       -2.37051004       0.61720997      -1.53747388
O        0.99154596      -1.54316803       2.45019012
C        0.20182696      -0.94025203       1.52207612
C       -2.09447304       0.90094997      -0.40008788
O       -0.80632204       1.11879197       0.07847312
H        0.25035096      -1.82239803       3.15736212
H        2.57227996      -1.93217403       0.46381312
H        0.58192496       2.00282397      -2.01296188
H        3.51587796      -1.21658403      -1.68227688
H        2.69549496       0.73466997      -2.97215388
H       -3.74925304       2.21900897       0.57141212
H       -3.61722204       0.48014397       1.07132812
H       -2.36145904       1.44531597       1.58757712
