21
Properties=species:S:1:pos:R:3 -405681.66108000034=T pbc="F F F"
C        1.69186984      -1.23397451      -0.59305770
C        1.34131584       1.53478449      -0.84380470
C        2.61276584      -0.49823851      -1.41174270
C        2.50391884       0.88069349      -1.38167770
C       -2.94953816       1.77144549       0.27439130
C        0.70174784      -0.66872851       0.16321830
C        0.40625884       0.70497949      -0.20704470
O       -0.95819116      -0.77966451       1.81183630
O       -2.13764216       0.06589649      -1.24859270
O        0.60398984      -2.53876751       1.70845330
C       -0.00375116      -1.34613451       1.27968630
C       -2.00542616       0.95773249      -0.41414070
O       -0.75360816       1.40106549       0.14548530
H        0.13840484      -2.67539051       2.52882530
H        1.60987184      -2.24651951      -0.51270070
H        1.14890984       2.66400349      -0.79721770
H        3.54587484      -0.92782651      -1.84764270
H        3.29912684       1.39742149      -1.82028270
H       -3.90498116       1.86240349      -0.15531170
H       -2.96480216       1.53180749       1.35398630
H       -2.55411316       2.74345849       0.20596130
