21
Properties=species:S:1:pos:R:3 -405686.16712808266=T pbc="F F F"
C        1.98104559      -1.18194798      -0.38633293
C        0.96382659       1.19372802      -1.48646393
C        2.67422059      -0.55683198      -1.38390993
C        2.13260959       0.65977502      -1.99391993
C       -2.79107441       2.11159302       0.68523807
C        0.92014459      -0.51008998       0.26305507
C        0.41309059       0.61432802      -0.30834293
O        0.68136259      -1.48838598       2.38275807
O       -2.46458641       0.21535802      -0.70081993
O       -0.85830341      -1.94352798       0.75801007
C        0.19150559      -1.33390798       1.26318707
C       -2.00498541       1.11238302      -0.04214293
O       -0.63952641       1.36257102       0.26772107
H       -1.26335941      -2.48585198       1.39914707
H        2.15144659      -2.21945398       0.02724607
H        0.69673759       2.23359602      -1.79950693
H        3.47768259      -1.08458298      -1.96552993
H        2.70936259       0.98591802      -2.78977793
H       -3.14911141       1.77514902       1.66953407
H       -2.19814641       2.99450502       0.84973807
H       -3.69906641       2.11295702      -0.00375493
