21
Properties=species:S:1:pos:R:3 -405686.4909111643=T pbc="F F F"
C        1.92348014      -1.11183239      -0.39384387
C        0.88047914       1.20042961      -1.33918987
C        2.46642314      -0.55220939      -1.55665287
C        2.01319514       0.72250561      -1.90802987
C       -3.13099886       1.85019461       0.12507113
C        0.75793314      -0.56171839       0.27428913
C        0.22481314       0.56787561      -0.25663087
O        0.81443314      -2.45174639       1.82072613
O       -2.16396686       0.09483961      -1.36331387
O       -0.23160186      -0.50277339       2.45005613
C        0.54245914      -1.28253239       1.58181413
C       -2.06579286       0.91869661      -0.49620887
O       -1.00523786       1.21882161       0.25836313
H       -0.49765886      -1.20352539       3.09650413
H        2.57150214      -1.94070139      -0.00175887
H        0.43585414       2.13120361      -1.77891487
H        3.33379614      -1.00239439      -2.03236587
H        2.34274714       1.28207861      -2.76087687
H       -3.83993686       1.07359061       0.60152813
H       -2.59902286       2.61854161       0.69627313
H       -3.70701886       2.22908961      -0.80168287
