21
Properties=species:S:1:pos:R:3 -405685.7684940023=T pbc="F F F"
C        2.02013729      -1.10909082      -0.42390646
C        0.67896529       0.90560618      -1.58890246
C        2.70271029      -0.42118282      -1.42014046
C        1.98599329       0.62328018      -2.03750546
C       -2.83915671       2.18380218       0.52080754
C        0.83893629      -0.74395182       0.16499354
C        0.17463529       0.34238518      -0.46651846
O        1.27421529      -1.97178182       2.14106654
O       -2.60211271       0.24262318      -1.05186646
O       -0.70805571      -0.84971182       1.88958254
C        0.51900529      -1.27182682       1.48492454
C       -2.14632571       1.06822318      -0.27950846
O       -0.85723271       0.97504218       0.15627754
H       -0.70436771      -0.86127582       2.87847154
H        2.41340829      -2.05753182      -0.01784946
H        0.26321129       1.77389418      -2.14649446
H        3.80367929      -0.69696782      -1.47447246
H        2.47286429       1.14977918      -2.86965846
H       -3.84239871       2.20154118       0.00621054
H       -2.85144571       1.97917418       1.53689554
H       -2.49017971       3.18532418       0.50334254
