21
Properties=species:S:1:pos:R:3 -405688.89173942595=T pbc="F F F"
C        2.14302774      -0.91054287      -0.09722451
C        0.61461474       0.91795413      -1.46018451
C        2.61437074      -0.47966987      -1.34737351
C        1.88392474       0.59981513      -1.93867551
C       -3.27354226       1.69895513       0.17123649
C        0.85859074      -0.55167287       0.43947349
C        0.14611474       0.38246613      -0.28101851
O       -0.72523226      -1.37862887       2.02267849
O       -2.00497226       1.17677213      -1.88089151
O        1.44625074      -1.83428687       2.36001449
C        0.42763974      -1.30942987       1.68308449
C       -2.12613326       1.09474513      -0.62788451
O       -1.12946426       0.69007013       0.19499349
H        1.04319574      -2.15596987       3.20147849
H        2.76164474      -1.41084087       0.53091149
H        0.02438774       1.73047913      -1.80609451
H        3.61309874      -0.71670987      -1.64317951
H        2.23206374       1.25381313      -2.71299951
H       -4.07643026       2.02402613      -0.57404351
H       -3.54156926       0.86111613       0.73073149
H       -2.91058326       2.60021713       0.65366249
