21
Properties=species:S:1:pos:R:3 -405684.24651121517=T pbc="F F F"
C        1.98785658      -1.09465422      -0.47825352
C        0.94189058       1.13861778      -1.70051452
C        2.74994758      -0.53153222      -1.51110052
C        2.24575858       0.71381578      -2.03343752
C       -3.16083542       1.88576478       0.36957648
C        0.80776158      -0.54078522      -0.01748852
C        0.19494358       0.59725978      -0.57264152
O        0.70726758      -2.22847822       1.64447148
O       -2.25835942      -0.41295522      -0.11358752
O       -0.45821142      -0.32123422       2.12346748
C        0.32056458      -1.17734422       1.23179048
C       -2.14146242       0.70948278       0.14647548
O       -0.84046942       1.30894678      -0.05738052
H       -0.68564142      -1.06636922       2.77696648
H        2.25397158      -1.94814022       0.09445248
H        0.35427358       1.93983778      -2.21330752
H        3.66736058      -0.96354822      -1.84232452
H        2.90896658       1.40841878      -2.63227552
H       -4.01288942       1.61309678       1.02913948
H       -2.71927042       2.76850978       0.76513848
H       -3.52821942       2.24489378      -0.70258552
