21
Properties=species:S:1:pos:R:3 -405687.4678254109=T pbc="F F F"
C        1.84868352      -1.41965406      -0.53833092
C        0.64122652       0.94827794      -1.70481192
C        2.54721352      -0.59305606      -1.43266392
C        1.97177852       0.57456794      -1.88645092
C       -2.52128548       2.42802494       0.83298408
C        0.56947652      -0.89644206      -0.16452392
C       -0.07873748       0.19005694      -0.68896192
O       -0.25717248      -1.24281506       2.08128708
O       -0.14243348       2.07639994       0.96779108
O       -0.78438148      -2.73833306       0.44721608
C       -0.20184848      -1.58106306       0.93651408
C       -1.24119948       1.75470294       0.55544408
O       -1.36226048       0.54982694      -0.23189892
H       -1.34320048      -3.06658406       1.17794108
H        1.97261952      -2.45117406      -0.19603992
H        0.10918752       1.66473594      -2.33422692
H        3.57910752      -0.75356006      -1.85371992
H        2.54442952       1.18266294      -2.59654092
H       -2.61147548       2.76472394       1.80948608
H       -2.47862548       3.48689994       0.32517408
H       -3.45554348       1.94183694       0.56807308
