21
Properties=species:S:1:pos:R:3 -405679.0316317069=T pbc="F F F"
C        1.96149418      -1.28287160      -0.40526900
C        0.74967118       1.04350740      -1.35887000
C        2.61553718      -0.56200660      -1.50247700
C        2.00512118       0.53203540      -1.91092600
C       -3.23536782       1.73417540       0.30014900
C        0.84947918      -0.74760560       0.24923000
C        0.28339118       0.46650740      -0.23036900
O       -0.78867482      -1.84095860       1.70290100
O       -2.02998182       0.79442840      -1.59106800
O        1.17882718      -0.96995160       2.39867500
C        0.26415318      -1.21714060       1.52133800
C       -2.07838682       1.12595140      -0.42534400
O       -0.85820982       0.91324040       0.39607500
H        0.88162318      -1.41934160       3.24665800
H        2.50299318      -2.11428460       0.02951200
H        0.15971218       1.88660840      -1.79162200
H        3.71972318      -0.62129760      -1.61565400
H        2.53251918       1.11160540      -2.68580200
H       -4.07800182       2.09791240      -0.40898300
H       -3.75333182       1.00828740       0.97381600
H       -2.98246382       2.55091540       0.92238900
