21
Properties=species:S:1:pos:R:3 -405686.18353407894=T pbc="F F F"
C        2.30886349      -0.89423441      -0.12916452
C        0.62335249       0.73375759      -1.63930752
C        2.81514849      -0.34462141      -1.29812152
C        1.93142849       0.39803159      -2.08375352
C       -2.96036451       1.85499459       0.59746748
C        1.04333749      -0.52956841       0.37191248
C        0.17807449       0.24583859      -0.40479152
O       -0.74847351      -1.91486041       1.34076848
O       -2.26699051       1.00429559      -1.66289052
O        0.90491049      -1.08784041       2.78426148
C        0.28823049      -1.30174241       1.51923048
C       -2.14040451       1.09217859      -0.43501252
O       -0.95859351       0.74498659       0.19042648
H        0.29779049      -1.53319641       3.46696448
H        2.93872449      -1.49899241       0.54320348
H        0.18816049       1.41868059      -2.32597452
H        3.84893849      -0.29030941      -1.54617752
H        2.28779749       0.93301159      -2.92335052
H       -3.64419851       2.56667159       0.09288848
H       -3.60830351       0.95986159       0.97084048
H       -2.27046151       2.39822059       1.31570448
