21
Properties=species:S:1:pos:R:3 -405683.79763977224=T pbc="F F F"
C        1.81338287      -1.32899811      -0.54976025
C        0.87495887       1.20381689      -1.38167425
C        2.53932487      -0.53745111      -1.42623625
C        2.01046687       0.71181389      -1.85158925
C       -2.67610113       2.51281389       0.42477575
C        0.45853387      -0.97942011      -0.17976925
C        0.05479987       0.24651389      -0.62653625
O        0.22129387      -1.85858911       2.14374175
O       -0.24529913       2.08602489       0.95112475
O       -1.26642213      -2.54075011       0.61347375
C       -0.13740813      -1.79554811       0.99301075
C       -1.32203013       1.73222189       0.45107975
O       -1.32676513       0.64426389      -0.39951125
H       -1.54833613      -2.99043311       1.45398575
H        2.25869587      -2.15662211       0.00982975
H        0.39949587       2.11784889      -1.65087025
H        3.58558687      -0.78508111      -1.63254925
H        2.68302887       1.13412389      -2.61594925
H       -2.91515613       2.86786589       1.46845575
H       -2.43725413       3.41794689      -0.16382525
H       -3.54354913       1.85875489      -0.00855625
