21
Properties=species:S:1:pos:R:3 -405698.3189992367=T pbc="F F F"
C        2.01430735      -1.21958264      -0.41836636
C        0.62299535       0.91120036      -1.66434736
C        2.43780835      -0.74746464      -1.69872836
C        1.64610735       0.20793036      -2.33544136
C       -3.16960365       1.85820436       0.65111264
C        0.92656635      -0.54863264       0.18254264
C        0.22107535       0.48588436      -0.38951136
O        1.54852735      -1.27898864       2.30387764
O       -2.43055765       0.26797736      -1.02012536
O       -0.61272865      -1.18623364       1.80652864
C        0.66599035      -1.09134864       1.50233064
C       -2.09307365       1.06167436      -0.13743436
O       -0.75779065       1.28608136       0.28820064
H       -0.65224565      -1.53265464       2.76011064
H        2.51269635      -1.92381864       0.24811564
H        0.21403235       1.79046036      -2.12696836
H        3.22365135      -1.28492164      -2.26243036
H        1.87915035       0.35612236      -3.44750436
H       -4.13453865       1.75121536       0.09890464
H       -3.30020465       1.39993236       1.62671064
H       -2.95414965       2.97562736       0.77685864
