21
Properties=species:S:1:pos:R:3 -405685.69052504963=T pbc="F F F"
C        2.12360420      -1.08220959      -0.29276379
C        0.74887420       1.05811941      -1.59345979
C        2.52806920      -0.59949059      -1.58242979
C        1.80041020       0.42231241      -2.22812179
C       -3.13007680       1.70581341       0.47243021
C        0.92309820      -0.45261159       0.27343421
C        0.30283520       0.58707041      -0.36611579
O        1.07924220      -2.26497859       2.04750221
O       -2.29570780       0.45096641      -1.39274979
O       -0.62113480      -0.76988859       2.31339121
C        0.51345620      -1.19322859       1.63499921
C       -2.08626580       1.02943941      -0.33451579
O       -0.79981580       1.21990041       0.17541321
H       -0.68150680      -1.57717959       2.87085821
H        2.54029920      -1.95011559       0.20005221
H        0.26715620       2.06434541      -1.97953479
H        3.37509320      -0.90279159      -2.07079379
H        2.15903720       0.95150141      -3.14415579
H       -3.87579580       2.15662941      -0.14076879
H       -3.71025880       1.03502541       1.03703121
H       -2.55740180       2.30513141       1.16107321
