21
Properties=species:S:1:pos:R:3 -405678.1571256909=T pbc="F F F"
C        1.94373803      -1.12190609      -0.54240165
C        0.99291603       1.35484991      -1.57269065
C        2.62563003      -0.53110909      -1.72131765
C        2.12606503       0.72246391      -2.14591365
C       -3.07824597       1.81977291       0.05110235
C        0.89039703      -0.51656409       0.03505735
C        0.36034303       0.70687191      -0.45276865
O        0.17583703      -2.29128609       1.48834135
O       -2.29219397      -0.55632709       0.26895135
O       -0.07219697      -0.21676609       2.17146635
C        0.27147203      -1.10362309       1.24360335
C       -2.06452297       0.59975491       0.01414335
O       -0.77819697       1.23148991       0.14688335
H       -0.36985097      -0.78607409       2.98284735
H        2.12896003      -2.06208509      -0.28594365
H        0.55817703       2.23286891      -2.04555365
H        3.59125903      -0.87859909      -2.05085765
H        2.43179103       1.17466691      -3.10297065
H       -3.65343697       1.68065291       1.04530035
H       -2.39145197       2.69339391       0.27184735
H       -3.64546297       2.04819391      -0.87819465
