21
Properties=species:S:1:pos:R:3 -405693.5920497861=T pbc="F F F"
C        2.10186716      -1.05789433      -0.48986621
C        0.79883416       1.17874467      -1.60252721
C        2.54912416      -0.50139733      -1.76608321
C        1.98107716       0.69538367      -2.18037021
C       -2.98199084       1.83760267       0.37898179
C        0.91923716      -0.53708733       0.07594079
C        0.29258816       0.55582867      -0.48502021
O        0.39746116      -2.34723733       1.78720379
O       -2.25671984      -0.36156533      -0.41798621
O       -0.25464384      -0.21889533       2.19782779
C        0.34996216      -1.18258933       1.38034479
C       -2.02096284       0.77564567      -0.06378821
O       -0.76560884       1.24337067       0.16688079
H       -0.57393884      -0.79303533       2.88001679
H        2.45440716      -1.93067633       0.00125779
H        0.38643616       2.17973367      -1.71640821
H        3.38553916      -0.95682333      -2.24848821
H        2.29805016       0.99650767      -3.19897421
H       -4.02194384       1.61306367       0.09105679
H       -3.07068384       1.86681467       1.46339879
H       -2.66303984       2.74944467       0.05389179
