21
Properties=species:S:1:pos:R:3 -405691.16204634204=T pbc="F F F"
C        1.73971069      -1.30684869      -0.46345986
C        1.63487569       1.56283331      -0.62786586
C        2.82243369      -0.49928369      -0.79836386
C        2.78644769       0.91627031      -0.86353986
C       -2.83827431       1.80204631       0.55834614
C        0.66107969      -0.60765969       0.05328314
C        0.57509669       0.74117031      -0.22410786
O       -1.09637431      -0.87237269       1.61742914
O       -1.97982031       0.20392831      -1.10101786
O       -0.27623831      -2.74754869       0.62322714
C       -0.35026331      -1.43475869       0.87111714
C       -1.86268531       1.07239431      -0.27576286
O       -0.58109931       1.50536431       0.14534914
H       -0.92584531      -3.12935969       1.20875614
H        1.77379869      -2.40526869      -0.25801286
H        1.66836369       2.59181431      -0.57126886
H        3.78522869      -0.95256269      -1.03910286
H        3.72336369       1.53026831      -0.91562686
H       -3.82660531       1.79930131       0.19213514
H       -2.71856231       1.24121531       1.54766014
H       -2.59123731       2.90296931       0.52107414
