21
Properties=species:S:1:pos:R:3 -405689.40656650363=T pbc="F F F"
C        1.91840306      -1.20190522      -0.28751664
C        1.46984006       1.43911178      -0.84202464
C        2.82758906      -0.51179022      -1.12808364
C        2.64400106       0.84662578      -1.41959064
C       -3.03643194       2.11055978      -0.04473464
C        0.72323706      -0.68309922       0.21306236
C        0.54887606       0.77099878      -0.00275564
O       -0.73500794      -1.00742022       2.02942236
O       -2.11375794       0.03076978      -0.72787164
O       -0.23731594      -2.65306122       0.62324236
C       -0.17966294      -1.43204222       1.04521636
C       -1.90143794       1.10994478      -0.15697164
O       -0.62298094       1.52023578       0.26894236
H       -0.98522794      -3.21711022       1.05142936
H        1.99798306      -2.28172122       0.01980636
H        1.03817806       2.46109878      -1.08074664
H        3.68220706      -1.06897022      -1.54214764
H        3.30952306       1.50234178      -1.89845864
H       -3.58236894       1.78212378       0.86509936
H       -2.67117794       3.13556078      -0.00119164
H       -3.62936194       2.01286178      -0.99360464
