21
Properties=species:S:1:pos:R:3 -405684.35424493306=T pbc="F F F"
C        1.85367589      -1.40542428      -0.50172253
C        1.46289889       1.27789772      -0.66814553
C        2.82429489      -0.56250828      -1.02121753
C        2.64695689       0.78077272      -1.25231553
C       -2.91588011       1.71805872       0.61767747
C        0.64572989      -0.85203428      -0.04161553
C        0.49247489       0.59486572      -0.01591553
O       -1.57187311      -1.47231928       0.85414347
O       -1.81788211       1.24310972      -1.45448953
O        0.36418489      -2.22609928       1.73093047
C       -0.36934311      -1.54503428       0.85229347
C       -1.79737411       1.31066372      -0.23433553
O       -0.63856111       1.26127272       0.48742747
H       -0.18308711      -2.55793328       2.41420447
H        2.14353989      -2.33364628      -0.08514153
H        1.08588389       2.30676172      -0.72415053
H        3.72206789      -1.16210828      -1.19080253
H        3.51198489       1.37845072      -1.57787853
H       -3.68835611       2.28394272       0.03308747
H       -3.42191811       0.82318372       1.04783047
H       -2.68763011       2.52720972       1.37632847
