21
Properties=species:S:1:pos:R:3 -405693.89952365565=T pbc="F F F"
C        2.16663448      -0.82011516      -0.17105717
C        1.02176848       1.13995284      -1.62981817
C        2.86422448      -0.35188016      -1.26689017
C        2.24173648       0.62941584      -2.05104317
C       -2.97038252       1.55439884       0.84089383
C        0.87384248      -0.50910216       0.17683083
C        0.36776948       0.58053284      -0.55311917
O        0.50977048      -2.40785616       1.65538483
O       -2.34533552      -0.00409816      -0.75710117
O       -0.92540952      -0.65539016       1.83083083
C        0.19335048      -1.33430716       1.26021083
C       -1.99456652       0.89808484      -0.08566017
O       -0.72387352       1.45554584      -0.07300617
H       -1.14674952      -1.33527716       2.54679283
H        2.43916948      -1.85341016       0.18467783
H        0.55982048       1.98190884      -2.13332417
H        3.78245348      -0.78335816      -1.58181717
H        2.72759748       0.99716284      -2.97880917
H       -2.77642052       1.22998984       1.84916983
H       -2.98104652       2.67324384       0.84298883
H       -4.02638152       1.39288284       0.54758183
