21
Properties=species:S:1:pos:R:3 -405688.4983358599=T pbc="F F F"
C        1.85007666      -1.27679303      -0.44732406
C        1.58437266       1.45544897      -0.48189106
C        2.86565866      -0.44695303      -0.90039506
C        2.78789266       0.90227997      -0.91020806
C       -2.89430934       1.76027597       0.81553194
C        0.65593066      -0.77055403       0.05391494
C        0.51517066       0.61971097      -0.07427706
O       -1.56941834      -1.38521103       0.43211794
O       -1.73479234       1.43008897      -1.25842206
O       -0.13107834      -2.91071303       1.23032694
C       -0.42839734      -1.71422103       0.54785994
C       -1.70891834       1.40285097      -0.04961506
O       -0.50635434       1.22228497       0.60279694
H       -0.90831334      -3.26893303       1.70716794
H        2.03044166      -2.38643603      -0.40763306
H        1.36205666       2.49649697      -0.80823106
H        3.73272166      -0.95515303      -1.30187206
H        3.73226666       1.54841097      -1.10035106
H       -2.99309234       2.79655097       0.81416694
H       -3.75526234       1.34677097       0.42186794
H       -2.88675134       1.50208697       1.91800394
