21
Properties=species:S:1:pos:R:3 -405687.86987323896=T pbc="F F F"
C        1.86695467      -1.22382005      -0.33472658
C        1.52871867       1.53011495      -0.87712458
C        2.93470067      -0.47616705      -0.87783858
C        2.72504767       0.89198895      -1.05582358
C       -2.80752333       2.04966795       0.21764342
C        0.72018567      -0.51739205      -0.00100958
C        0.49330667       0.79867095      -0.28462658
O       -0.71361233      -0.96676805       1.99195442
O       -2.12540733      -0.23834205      -0.52984158
O       -0.53175933      -2.54377405       0.45397942
C       -0.24258533      -1.25902405       0.88351642
C       -1.90911233       0.84603795      -0.09594258
O       -0.66027633       1.45078095       0.00252242
H       -1.15384733      -2.91108705       1.03370342
H        1.96844667      -2.25548005      -0.04544858
H        1.44410467       2.58742995      -1.24388258
H        3.96705567      -0.83505705      -1.07381358
H        3.63776267       1.48118995      -1.22400158
H       -3.36326333       2.26047295      -0.65793958
H       -3.45502933       1.71028295       0.94874542
H       -2.29106133       2.99986195       0.69798842
