21
Properties=species:S:1:pos:R:3 -405685.10017765866=T pbc="F F F"
C        1.90704321      -1.30708460      -0.43662359
C        0.92809021       1.19822440      -1.38706359
C        2.45680221      -0.67938860      -1.58122559
C        2.01716521       0.57634640      -2.05794159
C       -3.12694979       1.19899740       0.52912641
C        0.88631521      -0.67499660       0.22531541
C        0.39446221       0.54897040      -0.26903159
O       -0.82783779      -1.84222760       1.65589941
O       -1.97777379       0.86117040      -1.64800059
O        0.83580021      -0.70841160       2.57658141
C        0.18051321      -1.15014760       1.50471941
C       -1.93454979       1.02394640      -0.46599159
O       -0.74039479       0.96001240       0.42596841
H        0.21901621      -1.01018060       3.34238341
H        2.51993621      -2.11147660      -0.11123259
H        0.59427121       2.16764440      -1.62394559
H        3.38105121      -1.03103360      -2.06055059
H        2.70024621       1.20104240      -2.64711159
H       -4.05034079       0.88719940      -0.08550359
H       -3.29757079       0.46338440       1.36592041
H       -3.21481179       2.26047940       0.93965541
