21
Properties=species:S:1:pos:R:3 -405690.4066937304=T pbc="F F F"
C        1.92627742      -1.07823709      -0.50616662
C        1.19028842       1.46213991      -1.38786162
C        2.62096242      -0.51343409      -1.62112362
C        2.27155642       0.77248591      -1.88759462
C       -3.10376258       1.71695691       0.25747738
C        0.80304042      -0.42980409       0.13586538
C        0.40066542       0.82132291      -0.41186262
O        0.36628442      -2.38254009       1.57289838
O       -2.10115958      -0.51827409      -0.33336662
O       -0.64658358      -0.46141209       2.06716538
C        0.19699342      -1.18602409       1.32410338
C       -1.98889558       0.66167291      -0.01234162
O       -0.75567858       1.36075791      -0.02750762
H       -0.70191358      -1.13944409       2.77648438
H        2.08960642      -2.06425009      -0.17156162
H        0.93672042       2.49687591      -1.82299962
H        3.55990742      -1.02844609      -1.87695562
H        2.69864642       1.16302691      -2.86233362
H       -3.78286258       1.19729891       0.92271738
H       -2.79177158       2.69137691       0.62114838
H       -3.62296458       1.93086691      -0.69844962
