21
Properties=species:S:1:pos:R:3 -405690.28089259553=T pbc="F F F"
C        1.89352747      -1.20796413       0.04158003
C        1.40213547       1.34462087      -0.76267097
C        2.87429047      -0.55581713      -0.69103397
C        2.63447447       0.74805587      -1.12654697
C       -3.04205553       2.01367187       0.23818203
C        0.58092647      -0.69586713       0.24039003
C        0.44354247       0.69287287      -0.04149097
O       -0.72688653      -1.37463813       2.04319203
O       -1.81593953       0.99983687      -1.50008697
O       -0.23179853      -2.78161113       0.24423703
C       -0.27651453      -1.60648313       0.91244203
C       -1.84323353       1.31335387      -0.33888097
O       -0.70836453       1.38411887       0.45382603
H       -0.72569353      -3.47348213       0.67473403
H        2.06537747      -2.21939513       0.48232003
H        1.31432647       2.36622687      -1.08287497
H        3.85172147      -1.04249413      -0.83790597
H        3.38119347       1.30797987      -1.63809897
H       -2.84870453       3.07465487       0.09643203
H       -3.98258453       1.95860887      -0.44039497
H       -3.34835053       1.78882987       1.24153903
