21
Properties=species:S:1:pos:R:3 -405694.836466801=T pbc="F F F"
C        1.62177399      -1.54757414      -0.66066845
C        0.95112899       1.03977686      -1.38648945
C        2.40312699      -0.96083414      -1.65387445
C        2.02142499       0.31566186      -1.99534245
C       -2.40677401       2.18659886       1.48986955
C        0.48003199      -0.94743614      -0.10069145
C        0.15626999       0.38690086      -0.40030245
O       -1.24607601      -1.61188614       1.52818855
O       -0.62802101       3.20659886       0.18399555
O        0.08278999      -3.18140914       0.69743055
C       -0.29284001      -1.86592114       0.77542155
C       -1.19055901       2.19134386       0.57719455
O       -0.99338401       0.86320686       0.13387755
H       -0.62282501      -3.56291314       1.25041755
H        1.85931199      -2.59694414      -0.32092545
H        0.60808799       2.04204086      -1.73249545
H        3.40404699      -1.32517414      -2.07772445
H        2.66561399       0.73178286      -2.72885145
H       -2.24394201       1.76634786       2.46196555
H       -2.67874101       3.24565086       1.72293955
H       -3.37069801       1.67371086       1.00362555
