21
Properties=species:S:1:pos:R:3 -405685.3813484148=T pbc="F F F"
C        2.16411458      -0.94993390      -0.24306733
C        0.78087258       1.04680510      -1.62353233
C        2.78045658      -0.45569390      -1.42451833
C        2.00644358       0.47284310      -2.16171133
C       -2.96386542       2.11280110       0.52474267
C        0.91021658      -0.54542390       0.21699067
C        0.26536358       0.52576210      -0.37602033
O        1.13785058      -1.86417190       2.19271267
O       -2.50370942       0.22186510      -1.10762333
O       -0.88430242      -1.23212290       1.73801567
C        0.36912958      -1.29936190       1.44511967
C       -2.06449242       0.98285410      -0.24291733
O       -0.83341242       1.12246110       0.23275167
H       -1.13342742      -1.98902990       2.33318367
H        2.50110158      -1.74263390       0.46835767
H        0.42794158       1.76276310      -2.37555933
H        3.80185758      -0.80494390      -1.66640633
H        2.27102758       0.87806910      -3.14451233
H       -2.59585842       3.08714210       0.06361367
H       -4.11637242       2.00091110       0.43720267
H       -2.80077442       2.10106710       1.64246267
