21
Properties=species:S:1:pos:R:3 -405686.0236181895=T pbc="F F F"
C        1.71117790      -1.32548579      -0.44528745
C        0.71761590       0.97611421      -1.75492445
C        2.34802590      -0.82106679      -1.54990445
C        1.89949590       0.33645721      -2.20421045
C       -2.53590210       2.37083721       1.05196255
C        0.48838590      -0.76877979      -0.05750845
C       -0.07517110       0.39035621      -0.70287945
O       -0.91864110      -1.53384579       1.95469555
O       -0.17690310       2.32944721       1.08704255
O        0.13735890      -3.00984679       0.51823755
C       -0.25192110      -1.72603379       0.97482555
C       -1.23320810       2.03634521       0.64974255
O       -1.28832310       0.92392621      -0.38500845
H       -0.32135810      -3.61680879       1.14628155
H        2.05999890      -2.21951779       0.01159555
H        0.26392590       1.87244921      -2.20629845
H        3.37164990      -1.20415479      -1.74949645
H        2.53285090       0.85120921      -2.86732245
H       -2.58528310       3.01914021       1.98528455
H       -3.10316810       2.91545321       0.23060055
H       -3.10099110       1.37244821       1.14228755
