21
Properties=species:S:1:pos:R:3 -405691.741304656=T pbc="F F F"
C        2.14910255      -1.00246632      -0.18725930
C        0.57801355       0.74763868      -1.70596130
C        2.65829755      -0.47847832      -1.45965230
C        1.80822655       0.38171568      -2.19347430
C       -3.54241145       1.10677668      -0.29459930
C        0.91475955      -0.58556732       0.26175470
C        0.05488455       0.18078468      -0.54630930
O        1.22498055      -2.07128332       2.08236570
O       -1.47450745       2.36793568      -0.18436230
O       -0.63870045      -0.78343432       2.30142270
C        0.53949655      -1.24148532       1.60894570
C       -1.97049045       1.26439868      -0.30400630
O       -1.26219845       0.09479268      -0.28694830
H       -0.47817645      -1.22312932       3.21214470
H        2.66401055      -1.64837532       0.43991670
H       -0.10159545       1.37341368      -2.40960530
H        3.63769855      -0.78503232      -1.91284930
H        2.15989655       0.91796768      -3.10825630
H       -3.93835745       1.33796068       0.69912670
H       -3.97805045       1.74736268      -1.00519030
H       -3.81794945       0.05596368      -0.61154630
