21
Properties=species:S:1:pos:R:3 -405682.37460285897=T pbc="F F F"
C        1.99205060      -1.19174883      -0.30168778
C        1.40168260       1.52954017      -1.08064478
C        2.78228660      -0.46339183      -1.10477578
C        2.41260460       0.77841317      -1.54275078
C       -3.02486240       1.77120117       0.10594922
C        0.80464960      -0.48662583       0.27703422
C        0.51546760       0.80735717      -0.20491578
O       -0.90063940      -0.87885983       2.06303222
O       -1.98928740      -0.07734083      -0.86705378
O       -0.07311940      -2.55215083       0.90933722
C       -0.11365840      -1.23600283       1.18766522
C       -1.91084240       0.89843117      -0.22419678
O       -0.64256340       1.50031317       0.26150022
H       -0.72211140      -3.07477183       1.48529622
H        2.21678960      -2.24567083       0.03677422
H        1.11613560       2.40881017      -1.54769378
H        3.66631460      -0.81193683      -1.47584978
H        3.23818460       1.10919917      -2.25182378
H       -3.80731240       1.02346117       0.56173322
H       -2.87476540       2.62114217       0.79397822
H       -3.46938040       2.17698917      -0.77473278
