21
Properties=species:S:1:pos:R:3 -405697.39781641576=T pbc="F F F"
C        1.99588886      -1.06350626      -0.39965862
C        0.89161886       1.26007874      -1.48412962
C        2.40561086      -0.64893426      -1.71321662
C        1.94091886       0.62758274      -2.17756062
C       -3.10155614       1.63594174       0.51900238
C        0.87220086      -0.52049126       0.14353538
C        0.28103786       0.60607774      -0.38741262
O        0.82385186      -2.21758126       1.83038238
O       -2.21012814      -0.15419026      -0.92950962
O       -0.36746814      -0.31896226       2.24943538
C        0.39665186      -1.11269326       1.45381738
C       -2.08864214       0.78600674      -0.23418062
O       -0.78344114       1.22053374       0.19010538
H       -0.60070914      -0.90294726       2.96030138
H        2.33796486      -2.05154826       0.06644238
H        0.43324586       2.21207874      -1.74925162
H        3.22010386      -1.20884826      -2.22838062
H        2.10585486       0.97433274      -3.17148762
H       -4.11892314       1.08534074       0.50400638
H       -2.79260314       1.85109674       1.56645438
H       -3.10788314       2.67916874      -0.00398362
