21
Properties=species:S:1:pos:R:3 -405682.48602045083=T pbc="F F F"
C        2.08993125      -0.99112728      -0.12192156
C        0.53830825       0.67575472      -1.68475356
C        2.70162125      -0.35432228      -1.26127056
C        1.88147325       0.51105972      -2.04875256
C       -3.12910575       1.55281372       0.67472944
C        0.88651125      -0.63586128       0.34139744
C        0.06692225       0.14983472      -0.53251256
O        1.31506525      -1.82533728       2.39843144
O       -1.92868775       2.15364872      -1.36436256
O       -0.77201475      -1.74691828       1.53850944
C        0.54662725      -1.33327228       1.57349544
C       -1.97726775       1.46418972      -0.32852856
O       -1.15965375       0.52657772       0.07246944
H       -1.08632075      -2.38275328       2.18231544
H        2.77219125      -1.68856128       0.40146844
H       -0.07855875       1.24617772      -2.26528756
H        3.76070825      -0.55262328      -1.38299556
H        2.29363125       0.80867772      -3.04717356
H       -2.81522375       1.66647772       1.64437244
H       -3.89849075       2.20792572       0.22380044
H       -3.47669175       0.47980672       0.60640244
