21
Properties=species:S:1:pos:R:3 -405695.68872984446=T pbc="F F F"
C        1.95600023      -1.23032944      -0.43379673
C        0.74947223       1.12539156      -1.34952273
C        2.41231623      -0.64966144      -1.66756873
C        1.83478323       0.54506456      -2.05717473
C       -3.16633777       1.90837456       0.30881827
C        0.93372423      -0.67768744       0.28192227
C        0.23707923       0.54421856      -0.17445173
O        1.46487823      -1.80802144       2.28830327
O       -2.20776477       0.51816056      -1.48525073
O       -0.69975377      -1.09515944       1.96665727
C        0.61920823      -1.28593044       1.59488827
C       -2.13188177       1.03501956      -0.39388073
O       -0.94972377       1.11702456       0.33658227
H       -0.89127577      -1.66008744       2.70667527
H        2.63122523      -1.93010344       0.04211227
H        0.17699023       1.86460256      -1.84426773
H        3.18413923      -1.13205644      -2.17709773
H        2.25280823       0.99170456      -3.00053273
H       -3.34699377       2.80225056      -0.28967373
H       -4.07088977       1.32164856       0.18782427
H       -2.97890277       2.21500256       1.40254227
