21
Properties=species:S:1:pos:R:3 -405678.6403578106=T pbc="F F F"
C        2.11919606      -1.06869764      -0.37353555
C        0.64927106       1.06788636      -1.53300655
C        2.46676606      -0.54790764      -1.58976055
C        1.76705006       0.54721136      -2.15202555
C       -3.27658894       1.70317936       0.30759745
C        0.96098306      -0.50952364       0.27068845
C        0.19780706       0.46169936      -0.34634955
O        0.94550906      -2.36422164       1.96674245
O       -2.33972694       0.18937736      -1.30967655
O       -0.07023794      -0.26144864       2.47266145
C        0.60064906      -1.20919264       1.53878645
C       -2.15562194       0.99662436      -0.43314155
O       -0.87872794       1.05449936       0.24986545
H        0.10592806      -0.75654064       3.29069945
H        2.65351306      -1.74828164       0.18659045
H        0.09108406       1.93171836      -2.00306755
H        3.15351206      -1.16361864      -2.18186755
H        2.08859006       1.10582536      -3.02267855
H       -4.10976794       1.66285436      -0.27495355
H       -3.55135794       0.98718836       1.07216045
H       -2.88739794       2.74985536       0.62385245
