21
Properties=species:S:1:pos:R:3 -405680.0407334562=T pbc="F F F"
C        2.00824194      -1.48440727      -0.19768937
C        1.32510994       1.25714673      -0.97884237
C        2.86847794      -0.68508827      -0.94905337
C        2.60422694       0.70414873      -1.23310737
C       -3.00097106       1.83030773       0.70162963
C        0.74721594      -0.79895527       0.12395663
C        0.44882294       0.51698773      -0.27516337
O       -1.51828506      -1.71853427       0.65017963
O       -1.90296106       1.72057873      -1.40164737
O        0.43839994      -2.20934827       1.89394563
C       -0.32963706      -1.56016727       0.88995263
C       -1.82864206       1.58576173      -0.19834537
O       -0.67716206       1.04512573       0.38210763
H       -0.04510006      -3.08441027       2.02898363
H        2.22461794      -2.53539427       0.07569163
H        0.99878194       2.26593373      -1.10680737
H        3.78253394      -1.06855927      -1.44173037
H        3.38700694       1.24984273      -1.63447937
H       -3.85700306       2.41271973       0.31853263
H       -3.45178506       0.91670973       1.01935963
H       -2.61499706       2.02619973       1.74690763
