21
Properties=species:S:1:pos:R:3 -405698.64924918744=T pbc="F F F"
C        1.65245918      -1.38675434      -0.63645716
C        0.85549118       1.11848566      -1.74971216
C        2.38729218      -0.76700934      -1.57210916
C        2.05455018       0.52496966      -2.08483216
C       -2.40202282       2.31081666       1.07198884
C        0.38543518      -0.90496834      -0.29814416
C        0.02622118       0.35807266      -0.85595216
O       -1.53913582      -1.22310734       1.11724184
O       -0.08922882       1.54465066       1.51705484
O        0.22163218      -2.58489634       1.41228584
C       -0.47764982      -1.59866534       0.77294984
C       -1.09264682       1.64542766       0.77535884
O       -1.13538882       1.05460066      -0.51903516
H       -0.34512782      -2.85897234       2.19026684
H        1.97836118      -2.36354534      -0.26867116
H        0.56087418       2.14696866      -2.00856616
H        3.19859418      -1.40107634      -1.86517716
H        2.75144418       0.85893166      -2.90791916
H       -2.35949382       2.88908566       1.98882084
H       -2.66043582       3.02654766       0.24531584
H       -3.13269282       1.40249666       1.13767084
