21
Properties=species:S:1:pos:R:3 -405689.1843851209=T pbc="F F F"
C        2.12426943      -1.19590674      -0.31125757
C        0.74925643       0.88107926      -1.60392357
C        2.53362543      -0.72042374      -1.57391257
C        1.92226643       0.36617526      -2.16237857
C       -3.11906657       1.10805926       0.66449843
C        0.94045843      -0.64506974       0.20465543
C        0.22243643       0.32787026      -0.39310657
O        0.43214643      -2.45186274       1.76975543
O       -2.03598557       1.86570026      -1.43829757
O       -0.16857957      -0.44690174       2.49615443
C        0.38814243      -1.24994874       1.49890743
C       -2.03999057       1.36109326      -0.31685657
O       -0.90676357       0.76467026       0.25230443
H       -0.29196057      -1.27945874       3.00773643
H        2.60281143      -1.90782974       0.30402443
H        0.38180743       1.86074826      -2.00474357
H        3.43870043      -1.11695874      -2.07692457
H        2.39308843       0.87406926      -2.98048357
H       -2.93565057       1.55156926       1.66415743
H       -4.06415757       1.51745726       0.20190843
H       -3.31411857      -0.01342774       0.55223243
