21
Properties=species:S:1:pos:R:3 -405681.8815977119=T pbc="F F F"
C        1.53475438      -1.55144239      -0.89207490
C        0.87148438       1.09699861      -1.29105590
C        2.39277638      -0.77695539      -1.73189990
C        2.09401438       0.62337161      -1.80575290
C       -2.56723062       2.21115261       1.14265810
C        0.43921538      -1.05076139      -0.20255990
C        0.07292538       0.28820961      -0.45234690
O       -1.11227562      -1.45446939       1.43672310
O       -0.29988762       2.95842161       0.53070810
O       -0.10006462      -3.32854839       0.72968810
C       -0.20909262      -1.88941439       0.81378910
C       -1.18795562       2.17792861       0.63216910
O       -0.98812262       0.81748161       0.24012610
H       -0.65595162      -3.50469439       1.57246810
H        1.61980038      -2.67529239      -0.89478090
H        0.53245738       2.09569361      -1.66999490
H        3.23810438      -1.13804039      -2.24549390
H        2.79716038       1.34778661      -2.30254590
H       -3.20770162       1.54769661       0.52371710
H       -2.63031762       1.65376961       2.22367010
H       -2.98128062       3.21286761       1.26878710
