21
Properties=species:S:1:pos:R:3 -405691.32398500363=T pbc="F F F"
C        1.87923754      -1.33653907      -0.26577413
C        1.53239454       1.47015693      -0.63523813
C        2.93098754      -0.56457007      -0.79230713
C        2.66750554       0.81959493      -1.12512413
C       -2.85811746       1.48338393       0.76667687
C        0.60346054      -0.72934007      -0.08044413
C        0.47103454       0.64300493      -0.08840713
O       -1.66346846      -1.19202607       0.53434987
O       -1.59591146       1.20891293      -1.24588613
O       -0.00353446      -2.58503707       1.25512587
C       -0.50602146      -1.55067207       0.49409687
C       -1.73435946       1.30866493      -0.03140213
O       -0.50563846       1.27356093       0.68313087
H       -0.79135946      -3.02535607       1.61747687
H        1.93711454      -2.39780907      -0.19024913
H        1.31867154       2.51212393      -0.67806013
H        3.93168954      -1.03919907      -0.89036213
H        3.44236254       1.44762493      -1.50115213
H       -3.82713246       1.56864593       0.26620787
H       -2.78834346       0.69601093       1.56113887
H       -2.78223346       2.40364493       1.27734487
