21
Properties=species:S:1:pos:R:3 -405675.0209123663=T pbc="F F F"
C        1.77978122      -1.46383788      -0.58072328
C        0.90482422       1.04217312      -1.64597728
C        2.42358522      -0.77994888      -1.62090728
C        2.04820122       0.43877712      -2.07590428
C       -2.49604478       1.94130112       1.34310772
C        0.60424922      -0.95100688      -0.02664628
C        0.11589622       0.36151812      -0.55650328
O       -0.99654578      -1.17137088       1.74402572
O       -0.31668378       2.55697212       0.79967372
O       -0.41232178      -2.97609688       0.57417972
C       -0.30969878      -1.67305588       0.89318672
C       -1.24571878       1.86826812       0.57329272
O       -1.18328478       0.87533012      -0.31186728
H       -0.45829178      -3.36932188       1.47456572
H        2.29429722      -2.29990288      -0.00486128
H        0.74045422       2.14248412      -1.92492028
H        3.34478422      -1.32609288      -1.99966528
H        2.79286822       1.00540012      -2.69396828
H       -2.61132078       2.96462312       1.37086672
H       -3.38478578       1.31528612       0.96592572
H       -2.09717878       1.58052712       2.29904572
