21
Properties=species:S:1:pos:R:3 -405686.03095545294=T pbc="F F F"
C        2.17777388      -1.07204201      -0.38350860
C        0.59596988       0.86988599      -1.64376060
C        2.54863888      -0.48636101      -1.56517360
C        1.84614788       0.53165599      -2.14967460
C       -3.09429512       2.07604099       0.39994540
C        0.87705988      -0.69015301       0.28832840
C        0.17947488       0.38239999      -0.33190660
O        1.36146188      -1.96626301       2.39495040
O       -2.40273512       0.61126099      -1.37591160
O       -0.72860112      -1.12688801       1.91949840
C        0.59595588      -1.33715001       1.58966340
C       -2.09534812       1.15843099      -0.32554160
O       -0.82868812       1.04705999       0.31617340
H       -0.76288912      -1.59080601       2.78085140
H        2.80077788      -1.85873801       0.12676440
H        0.05688388       1.70415299      -2.19073860
H        3.51831488      -0.57833601      -1.85379660
H        2.31394288       1.00176399      -3.00017460
H       -4.06638212       1.69226099       0.69112040
H       -2.51423112       2.46294799       1.19661640
H       -3.34354012       2.87953999      -0.32973860
