21
Properties=species:S:1:pos:R:3 -405683.8188845861=T pbc="F F F"
C        2.28293918      -1.00998098      -0.24613903
C        0.65092918       0.90021502      -1.55388203
C        2.73795118      -0.35333298      -1.38844203
C        1.80637118       0.54357702      -2.08011403
C       -2.80273982       2.30669302       0.39713797
C        0.90917018      -0.66746098       0.32618997
C        0.23155518       0.32482102      -0.36622203
O        1.22938518      -1.71525098       2.39649697
O       -2.47603082       0.55760802      -1.34956803
O       -0.92576382      -1.49973898       1.54208097
C        0.47623118      -1.35940298       1.56340897
C       -2.10095582       1.16797602      -0.34612503
O       -0.88043282       0.89875702       0.35365097
H       -1.05770382      -1.90565198       2.42600197
H        2.82920918      -1.85668598       0.18535497
H        0.08583418       1.71482902      -2.03740103
H        3.57024418      -0.84186798      -1.80397203
H        1.98421418       0.99502502      -2.99385103
H       -3.67628782       1.83610402       0.93787897
H       -2.13729182       2.88999002       1.01871597
H       -3.05429182       3.01431702      -0.44883603
