21
Properties=species:S:1:pos:R:3 -405676.293647563=T pbc="F F F"
C        1.84966838      -1.18216435      -0.57134005
C        0.51472138       0.77556865      -1.87414405
C        2.35170938      -0.69474235      -1.71835305
C        1.72222038       0.31424765      -2.39594205
C       -2.15625262       2.65516365       0.93574595
C        0.60518738      -0.72481335      -0.03560105
C        0.00393638       0.34411165      -0.73427405
O       -1.46620262      -1.41867035       0.86808095
O       -0.29518462       1.40951865       1.59590295
O        0.35309238      -2.52663935       1.57521395
C       -0.25743162      -1.46314535       0.88278995
C       -1.15301262       1.57183165       0.76744495
O       -1.23355962       0.95663065      -0.32871905
H       -0.22753462      -2.67475635       2.33489195
H        2.28048338      -2.02142535      -0.03355205
H        0.00613338       1.64379465      -2.30748405
H        3.32903938      -1.00689335      -2.09309405
H        2.14543038       0.77433665      -3.36876805
H       -1.95901062       3.01109265       1.89363895
H       -1.82317262       3.57343565       0.43871595
H       -3.26787262       2.75884965       0.72976795
