21
Properties=species:S:1:pos:R:3 -405683.0589923639=T pbc="F F F"
C        1.63662862      -1.38738357      -0.51723456
C        0.70084962       0.98306843      -1.63873356
C        2.54449462      -0.62749657      -1.26167056
C        1.96640462       0.47568343      -1.98954056
C       -2.48746838       2.24008143       1.32803944
C        0.41898962      -0.91855057      -0.06462156
C        0.03874162       0.27250043      -0.67268756
O       -0.47618138      -1.76459457       2.07075744
O       -0.34771438       2.91334443       0.45764744
O       -0.48137738      -3.15491157       0.26280244
C       -0.21552438      -1.90179557       0.88348744
C       -1.21321238       2.13124243       0.49805844
O       -1.20980338       0.89218243      -0.18203356
H       -0.61823538      -3.81423957       1.05760644
H        2.03381062      -2.29151457      -0.07309956
H        0.20569662       1.92649343      -1.97159556
H        3.58693662      -0.87456057      -1.35459756
H        2.68858962       1.11322943      -2.56440956
H       -2.45441738       3.10007743       2.02151444
H       -3.32574938       2.23199343       0.57934344
H       -2.56354238       1.19806243       1.79455944
