21
Properties=species:S:1:pos:R:3 -405675.91795753915=T pbc="F F F"
C        1.92763101      -1.39956039      -0.51537312
C        1.53715401       1.40612161      -0.32866612
C        2.84416101      -0.59452139      -1.06206812
C        2.73755301       0.83947061      -0.82980212
C       -2.89573399       2.15069661       0.66139788
C        0.74476601      -0.85088939       0.17808588
C        0.51554101       0.54278261       0.11897988
O       -1.44826399      -1.36032839       0.84148588
O       -1.98260699       1.42508361      -1.50178812
O        0.21375501      -2.81665639       1.12405688
C       -0.30132499      -1.70180539       0.74727288
C       -1.80935999       1.54154161      -0.27857712
O       -0.81976499       1.01999361       0.47318388
H       -0.48151599      -3.38171739       1.56839388
H        2.16641201      -2.45846239      -0.74668112
H        1.38967201       2.45085361      -0.16170912
H        3.92130501      -0.86863839      -1.29998212
H        3.46914101       1.62561161      -1.15797812
H       -3.53465999       2.76140461      -0.08199812
H       -3.50193799       1.47297661       1.19261088
H       -2.47098599       2.85874161       1.40051188
