21
Properties=species:S:1:pos:R:3 -405690.9773867812=T pbc="F F F"
C        1.81292631      -1.34245473      -0.44952138
C        1.42818031       1.47200427      -0.29727438
C        2.78928831      -0.52315673      -0.99704238
C        2.60332731       0.89619927      -0.79260538
C       -2.67716069       2.26231727       0.61747062
C        0.51732431      -0.84088473      -0.06069138
C        0.37369031       0.54519127      -0.04011038
O       -1.48191369      -1.53886273       0.90641262
O       -1.77289669       1.32394427      -1.48611638
O        0.35114331      -2.89856573       1.17317162
C       -0.30248169      -1.77127573       0.69866462
C       -1.80198969       1.52241127      -0.32607938
O       -0.71122769       1.16121027       0.57214762
H       -0.38317469      -3.41752673       1.56529362
H        2.08355531      -2.39363373      -0.46194738
H        1.06765631       2.49251427      -0.04559038
H        3.73732531      -0.95119773      -1.30608138
H        3.28822631       1.66602927      -1.12482438
H       -3.24447569       2.96475027       0.03131862
H       -3.45258669       1.50086427       0.96711662
H       -2.20085969       2.68486027       1.48835362
