21
Properties=species:S:1:pos:R:3 -405683.2063025488=T pbc="F F F"
C        2.11459876      -0.82406195      -0.36610402
C        1.21151876       1.40277205      -1.41578002
C        3.05722276      -0.09425195      -1.08374202
C        2.48349276       0.99806105      -1.67895502
C       -3.22488824       1.68569205      -0.25194802
C        0.78248276      -0.45655995       0.09530598
C        0.30385076       0.66195005      -0.52217302
O       -0.17048024      -0.62600395       2.28407198
O       -2.40033524      -0.45242895       0.33552898
O        0.05282376      -2.57420995       1.15425698
C        0.10606576      -1.18419995       1.26411198
C       -2.18763224       0.62989005      -0.09225902
O       -0.93906524       1.27582005      -0.45624002
H       -0.25670724      -2.98312895       1.98279098
H        2.42765876      -1.81838695      -0.13727902
H        0.78301876       2.24060105      -1.89264402
H        4.00650876      -0.48411295      -1.35278102
H        3.10634976       1.63669605      -2.27654202
H       -2.96530824       2.62856105      -0.86782802
H       -4.05574024       1.09271305      -0.66188502
H       -3.50737924       1.84014005       0.79419398
