21
Properties=species:S:1:pos:R:3 -405682.9510995727=T pbc="F F F"
C        1.95213159      -1.20640530      -0.39975273
C        0.52915559       0.92954970      -1.56005473
C        2.39664459      -0.68283430      -1.66358673
C        1.78603759       0.45908470      -2.14885173
C       -3.06267541       1.79385370       0.60661727
C        0.81442159      -0.79649030       0.25268727
C        0.19969759       0.29116870      -0.40471873
O        1.37308859      -1.93637130       2.31784927
O       -2.04396841       1.45924270      -1.58225973
O       -0.60175741      -0.98583130       2.11173827
C        0.58957459      -1.28691030       1.62534227
C       -1.95956141       1.28870470      -0.33540973
O       -1.00424641       0.62813870       0.27880227
H       -0.66810541      -1.28720530       3.00932627
H        2.69223359      -1.76306030       0.27201427
H       -0.01809441       1.71555770      -1.95496173
H        3.30988359      -1.11226030      -2.01152173
H        2.14134659       0.65368970      -3.17259673
H       -3.27784141       2.86438570       0.30168827
H       -3.96547541       1.17840970       0.26192727
H       -2.72088741       1.59662470       1.63763327
