21
Properties=species:S:1:pos:R:3 -405682.0244709063=T pbc="F F F"
C        2.02925022      -1.03165740      -0.09357679
C        0.99650522       1.26210960      -1.42030379
C        2.71312522      -0.44416340      -1.20995679
C        2.22215422       0.65542360      -1.90884079
C       -3.07357278       0.84329560       0.57934721
C        0.80801822      -0.49648140       0.26164421
C        0.30716122       0.76259560      -0.32898479
O       -0.67078678      -0.42812940       2.09376721
O       -2.21016778       0.45214560      -1.67000079
O        0.65286022      -2.39337940       1.83349921
C        0.21056222      -1.02174240       1.51566621
C       -2.05937378       0.83462360      -0.52730579
O       -0.82945378       1.34892260       0.15200821
H        0.00668722      -2.58815640       2.51642821
H        2.34280222      -1.99781840       0.33587621
H        0.48906322       1.98031160      -1.99622279
H        3.45400922      -1.00404140      -1.74825679
H        2.55987822       1.05911060      -2.83013479
H       -3.90488278       0.32377460       0.25090621
H       -2.70174678       0.29172160       1.51083121
H       -3.17924478       1.88927660       1.01953921
