21
Properties=species:S:1:pos:R:3 -405686.8642115557=T pbc="F F F"
C        2.19587853      -1.05063039      -0.30928842
C        0.94042253       1.04461961      -1.60931842
C        2.54575853      -0.58709639      -1.56033042
C        1.92384153       0.40741961      -2.27051942
C       -3.04181047       1.40031361       0.82848158
C        1.00196553      -0.61890139       0.25920558
C        0.30481453       0.49363661      -0.45799142
O        1.05945753      -1.65650339       2.51578258
O       -2.37351447       0.76992061      -1.40162642
O       -0.91154047      -1.20996639       1.63765658
C        0.42376053      -1.16551839       1.58859058
C       -2.09290447       1.11054161      -0.28102942
O       -0.76612447       1.15409861       0.17310958
H       -1.12111247      -1.46268539       2.58941258
H        2.67602953      -1.80357539       0.26188158
H        0.45578453       1.93763961      -1.99328342
H        3.22209053      -1.26551739      -1.96753142
H        2.28132553       0.77331861      -3.26681542
H       -2.71632447       1.92547161       1.72325758
H       -3.89149847       2.12202061       0.53287358
H       -3.45473847       0.41446261       1.09077458
