21
Properties=species:S:1:pos:R:3 -405683.0620613846=T pbc="F F F"
C        2.12863039      -1.00990581      -0.30525212
C        0.62876939       0.91999519      -1.60396912
C        2.52686339      -0.49873681      -1.52413812
C        1.80855339       0.44072819      -2.21221612
C       -3.10297261       1.87355019       0.43879988
C        0.95113139      -0.58342381       0.24796088
C        0.19643739       0.49004019      -0.35135012
O        1.14901739      -2.16712881       2.04175488
O       -2.20307361       0.47350719      -1.34831412
O       -0.65876561      -0.74980381       2.12015388
C        0.53327639      -1.20993481       1.54781488
C       -2.05687961       1.10340919      -0.30168812
O       -0.85098361       0.95955219       0.33651088
H       -0.82116161      -0.92169781       3.03535588
H        2.51423839      -1.94556281       0.19160288
H        0.04470439       1.68934019      -1.94093612
H        3.66233139      -0.70509581      -1.80575712
H        2.27553239       0.98239219      -3.01825312
H       -3.99991661       2.09000419      -0.23311312
H       -3.34582861       1.31004119       1.43507788
H       -2.66945761       2.88421719       0.73136788
