21
Properties=species:S:1:pos:R:3 -405681.6953516989=T pbc="F F F"
C        1.98534015      -1.27079980      -0.33478746
C        0.65951015       0.90131420      -1.39509346
C        2.33649515      -0.77828380      -1.60990546
C        1.77781115       0.36387720      -2.04357246
C       -3.28963685       1.81656920       0.43348154
C        0.75162515      -0.79408480       0.23731554
C        0.08372215       0.39597120      -0.28170646
O        1.55321215      -2.07013780       2.14512854
O       -2.16399485       1.46397920      -1.69618746
O       -0.41280485      -1.07644080       2.29447454
C        0.73787915      -1.31890380       1.61934554
C       -2.07801685       1.46195920      -0.50297246
O       -1.04220585       0.86379420       0.27799354
H       -0.26685485      -1.46449080       3.20971654
H        2.54584015      -1.88282680       0.27034854
H        0.15869815       1.67176020      -2.08572546
H        3.22866815      -1.23507980      -2.13078046
H        2.21602615       0.90486620      -2.91398846
H       -3.03039085       2.72735620       0.96190454
H       -4.05827385       1.99310920      -0.27364146
H       -3.30859685       1.02136520       1.18364254
