21
Properties=species:S:1:pos:R:3 -405686.0068970531=T pbc="F F F"
C        1.81132615      -1.25746026      -0.51299817
C        1.40413415       1.47031774      -0.84898317
C        2.63733715      -0.50714126      -1.32426417
C        2.49077015       0.86265274      -1.45676117
C       -3.04321785       1.79204074       0.27216883
C        0.69206815      -0.55927226       0.12228483
C        0.40388615       0.75952074      -0.20248817
O       -0.94043385      -0.79265326       1.81793983
O       -2.12717185       0.06923674      -1.18685117
O        0.53135615      -2.56941526       1.64601783
C        0.00221715      -1.30167326       1.23746483
C       -1.96416485       0.97752774      -0.37129217
O       -0.75532085       1.38711974       0.14830683
H       -0.13417585      -2.94805326       2.18009183
H        2.22218315      -2.30106726      -0.29091117
H        1.22240115       2.44388274      -1.12824017
H        3.26988915      -1.14570126      -1.91153317
H        3.08811215       1.50917874      -2.11492317
H       -4.09883785       1.42217374       0.04249183
H       -2.89568585       1.69514574       1.38534783
H       -3.23339585       2.93970074       0.07560783
