21
Properties=species:S:1:pos:R:3 -405666.94731107325=T pbc="F F F"
C        2.11872052      -0.91738215      -0.29761050
C        1.21585352       1.31396785      -1.59465950
C        2.86717252      -0.39701615      -1.27842550
C        2.47925252       0.74637585      -1.85614050
C       -2.99722648       1.47030385       0.56358550
C        0.85213652      -0.36962615       0.14895750
C        0.38917052       0.63048785      -0.63957750
O       -0.45914748      -0.03593315       2.05991450
O       -2.22380248      -0.72457915      -0.36694050
O       -0.06046048      -2.18191015       1.67235550
C        0.10913552      -0.84957615       1.34296550
C       -2.11632848       0.44984585      -0.15676150
O       -0.94003248       1.18721985      -0.45839250
H       -0.48558948      -1.94420215       2.60796150
H        2.30926252      -1.99380015       0.08133350
H        0.63675952       1.91302685      -2.35568950
H        3.76721052      -0.83995815      -1.53078250
H        3.16134052       1.21897585      -2.50235750
H       -3.37001048       0.84870785       1.33732750
H       -2.17109348       2.07315585       1.05725550
H       -3.94540148       1.84541785       0.03071050
