21
Properties=species:S:1:pos:R:3 -405684.9840819614=T pbc="F F F"
C        1.69884767      -1.30372777      -0.59731376
C        1.53050667       1.40285123      -0.39569076
C        2.61227067      -0.47343277      -1.22601876
C        2.68762767       0.88013223      -0.98231176
C       -3.05985233       1.87093323       0.36072424
C        0.63601267      -0.76591977       0.17478424
C        0.46307867       0.64863123       0.13056124
O       -1.47252033      -1.39468877       1.15846924
O       -1.53979733       1.18952623      -1.34738976
O        0.25022167      -2.89965377       1.00415224
C       -0.29843233      -1.66560177       0.80790324
C       -1.77612833       1.46384623      -0.19432676
O       -0.56294433       1.38347023       0.73853424
H       -0.33860133      -3.55641677       1.45601824
H        1.76958367      -2.39828777      -0.68313276
H        1.38796167       2.48539223      -0.55430076
H        3.28181067      -0.97480577      -1.91543876
H        3.57399167       1.46489423      -1.34850476
H       -3.66549633       0.97497323       0.48839524
H       -2.94708133       2.48859123       1.19354124
H       -3.79983233       2.33384623      -0.41475176
