21
Properties=species:S:1:pos:R:3 -405686.4303793649=T pbc="F F F"
C        1.79923924      -1.42322676      -0.61279809
C        1.25184724       1.48018124      -0.52757009
C        2.72704224      -0.46338776      -0.97835209
C        2.48794324       0.92132324      -0.96199309
C       -2.86934176       2.12677924       0.44043791
C        0.58653124      -0.95924776      -0.07933509
C        0.31213724       0.53478124      -0.10951809
O       -1.40624676      -1.69728176       1.17127491
O       -1.55418176       1.62379924      -1.54449009
O        0.65743224      -2.58954576       1.63964591
C       -0.24287576      -1.68754876       0.95920991
C       -1.75603676       1.58820824      -0.35528509
O       -0.97125476       0.79627824       0.38178291
H        0.07578924      -3.07651276       2.22030891
H        2.11933324      -2.44729576      -0.55238409
H        1.05443724       2.55030924      -0.72641209
H        3.76451924      -0.79318776      -1.27707609
H        3.28365124       1.52258824      -1.34291909
H       -3.60588376       2.56004624      -0.23448809
H       -3.37310376       1.36425724       1.00421691
H       -2.51152676       2.72945124       1.24552791
