21
Properties=species:S:1:pos:R:3 -405683.86725312757=T pbc="F F F"
C        1.79911113      -1.27285384      -0.45802207
C        1.00414013       1.19555516      -1.55006407
C        2.37767313      -0.81521284      -1.62862407
C        1.95578213       0.40861516      -2.16668207
C       -3.05921687       1.40583716       0.78334693
C        0.91690313      -0.44390484       0.23565793
C        0.37778413       0.72132416      -0.39462807
O        1.14380513      -1.75780784       2.23007893
O       -2.19805887       0.20012116      -1.07045907
O       -0.90424987      -0.92979084       1.69619293
C        0.43222113      -1.10542384       1.47971593
C       -1.99249987       0.95821116      -0.18375007
O       -0.71436487       1.51052716       0.13816893
H       -1.01092087      -1.34991784       2.60901393
H        2.08401313      -2.19403284      -0.06839007
H        0.52228813       2.11738516      -1.78650807
H        3.07371813      -1.41552284      -2.24441507
H        2.46256913       0.93213216      -2.80927007
H       -4.14785187       1.21606416       0.40299293
H       -3.00274787       1.10760816       1.84867393
H       -2.94832387       2.56345616       0.76604693
