21
Properties=species:S:1:pos:R:3 -405691.91032533225=T pbc="F F F"
C        2.13404080      -1.06378959      -0.38760628
C        0.68537580       1.08086741      -1.60790228
C        2.50704480      -0.57584459      -1.64590428
C        1.74850780       0.46797441      -2.33203128
C       -3.01786520       1.90607641       0.56592872
C        1.01228780      -0.49752759       0.30693472
C        0.32737480       0.48686141      -0.42948928
O        1.08729980      -1.86471459       2.19355172
O       -2.22732920       0.10472841      -0.87426128
O       -0.91896520      -1.02715859       1.65511072
C        0.44942680      -1.10839759       1.51450372
C       -1.95823820       1.03597041      -0.14736028
O       -0.69705820       1.20013841       0.31660472
H       -1.09604120      -1.72056759       2.36991472
H        2.70250880      -1.87412259       0.12096572
H        0.17380880       1.95385541      -1.84998028
H        3.48940480      -0.81842059      -2.00894428
H        2.00564780       0.73593841      -3.35223728
H       -2.96776620       1.88763541       1.57630772
H       -2.85102020       2.90048841       0.23184772
H       -4.00920120       1.49723741       0.24872672
