21
Properties=species:S:1:pos:R:3 -405687.0402346855=T pbc="F F F"
C        1.93587968      -1.02904836      -0.18860486
C        0.98649068       1.29118664      -1.36774786
C        2.42845268      -0.75848936      -1.51196986
C        2.05380368       0.48323864      -2.05271286
C       -3.29652432       1.69230664       0.05766214
C        0.86713868      -0.40867436       0.40773614
C        0.34662968       0.77804464      -0.19863486
O       -0.80140232      -0.96192936       2.05870414
O       -2.11512332       0.10824864      -1.40013786
O        1.20145468      -2.07741036       2.13518014
C        0.29924868      -1.08072536       1.63774814
C       -2.09851532       0.92502164      -0.51676386
O       -0.84704632       1.32878864       0.17486114
H        1.07398068      -2.22964536       3.10263714
H        2.21946868      -1.94290036       0.26179214
H        0.56735068       2.14781864      -1.83283486
H        3.21860468      -1.40110036      -1.90015586
H        2.45002468       0.85136064      -2.99117486
H       -3.00195232       2.42329164       0.76963514
H       -3.88066532       1.96513864      -0.83597386
H       -3.92719432       1.07776964       0.76373614
