21
Properties=species:S:1:pos:R:3 -405677.6202996512=T pbc="F F F"
C        2.12451809      -1.03340006      -0.39436864
C        0.63630209       0.92032194      -1.56699164
C        2.64727209      -0.44516906      -1.62133564
C        1.79999909       0.49907794      -2.28889764
C       -3.04765691       2.06006394       0.37400836
C        0.98141809      -0.66029506       0.24943536
C        0.23381809       0.31823194      -0.41446964
O        1.26984409      -1.89903606       2.36625236
O       -2.34844191       0.64239494      -1.37204964
O       -0.79403591      -1.16958506       1.97047636
C        0.51785809      -1.24729406       1.68070936
C       -2.09432691       1.11650894      -0.22268864
O       -0.82277991       0.98095094       0.37805236
H       -0.97263991      -1.88953806       2.67286436
H        2.73792209      -1.84297706       0.05517636
H        0.08351109       1.71491694      -1.93107664
H        3.63600509      -0.97890806      -2.08435364
H        2.05779209       1.02054794      -3.22200464
H       -3.83124191       1.37750794       0.66338036
H       -2.84986091       2.65355794       1.27918036
H       -3.31976191       2.68827194      -0.42130364
