21
Properties=species:S:1:pos:R:3 -405691.6071265553=T pbc="F F F"
C        1.98016590      -1.01708691      -0.37151998
C        0.74591190       1.13694309      -1.49320198
C        2.47137390      -0.55499891      -1.54707398
C        1.92604890       0.58422209      -2.14309198
C       -3.17157210       1.78600109       0.23733002
C        0.82247090      -0.62223891       0.25489002
C        0.27347890       0.54514309      -0.29270698
O        0.73676290      -2.44419191       1.87227302
O       -2.24232710       0.24100709      -1.32444798
O       -0.03259810      -0.42272691       2.51621202
C        0.45245490      -1.24244391       1.57748502
C       -2.13668010       0.94679609      -0.34974898
O       -0.86751510       1.14162909       0.19365502
H       -0.22242610      -1.03521091       3.27011802
H        2.37745890      -1.98854391       0.01276202
H        0.32927390       2.01413909      -1.99030198
H        3.41684790      -0.96255891      -1.83026298
H        2.47031290       0.98818309      -3.02485698
H       -4.08332510       1.17304509       0.25922102
H       -2.83537110       2.04093809       1.19448502
H       -3.32336610       2.72417509      -0.44601298
