21
Properties=species:S:1:pos:R:3 -405687.33633893577=T pbc="F F F"
C        2.13671564      -0.92932084      -0.26937130
C        1.17575264       1.42909816      -1.42865030
C        2.96663064      -0.13922784      -1.17958530
C        2.52024364       1.08803716      -1.74165430
C       -3.31991436       1.66275616      -0.15851830
C        0.82430964      -0.55246084       0.05032470
C        0.37129864       0.66418616      -0.55531730
O       -0.28732736      -0.59308484       2.27646570
O       -2.30006136      -0.49546784       0.24499770
O        0.09726064      -2.51800684       1.16974670
C        0.03069464      -1.15867784       1.24565170
C       -2.11490636       0.68715016      -0.00801630
O       -0.91466136       1.22022116      -0.41301130
H       -0.44209636      -2.81187584       1.98460270
H        2.58505664      -1.82851184       0.27205970
H        0.74083664       2.46397816      -1.62716530
H        4.04367464      -0.44596984      -1.22147930
H        3.13206364       1.81132916      -2.30663730
H       -2.96874836       2.41120216      -0.89601430
H       -4.10235936       1.18130616      -0.75226330
H       -3.61411136       2.32934316       0.68425370
