21
Properties=species:S:1:pos:R:3 -405680.7616258514=T pbc="F F F"
C        1.79199852      -1.31798018      -0.61431587
C        1.05469552       1.31493382      -1.31681887
C        2.46864152      -0.72522418      -1.59602687
C        2.08757252       0.57133382      -1.96370787
C       -3.18597948       1.32768982       0.59696613
C        0.79418152      -0.62272118       0.08498613
C        0.30896752       0.71963482      -0.24373787
O        1.14802352      -1.85580118       2.28537413
O       -2.06960848       0.73287582      -1.37840387
O       -0.91701248      -1.09462718       1.76780313
C        0.42633452      -1.27607918       1.47715813
C       -2.00995448       1.02540382      -0.23219487
O       -0.80176648       1.26663282       0.27534513
H       -0.89555048      -1.46827518       2.67295513
H        2.17288252      -2.20460918      -0.30838487
H        0.85451952       2.34553282      -1.52943787
H        3.17834852      -1.31781418      -2.24676287
H        2.67615052       1.10501582      -2.70798887
H       -3.12433848       1.00760882       1.72126213
H       -3.28024448       2.45863582       0.69410513
H       -4.16663748       1.05654882       0.22126413
