21
Properties=species:S:1:pos:R:3 -405674.8852007511=T pbc="F F F"
C        1.95002554      -1.11220363      -0.36725438
C        0.87840754       1.08278537      -1.32908638
C        2.46232854      -0.68444363      -1.63178238
C        1.84634154       0.47167937      -2.10824638
C       -3.25454846       1.82612137       0.29326062
C        0.76588754      -0.58875163       0.24821062
C        0.15773854       0.49336737      -0.24551838
O        1.44743054      -1.89587763       2.25727262
O       -2.22829346       0.52932637      -1.49564338
O       -0.59097646      -1.07107963       1.97173362
C        0.68769354      -1.23513363       1.58252462
C       -2.15786546       1.08616637      -0.43052138
O       -0.96000246       1.14153237       0.40660962
H       -0.66956246      -1.46545063       2.85607462
H        2.14679254      -2.11420563      -0.05689138
H        0.77346354       2.17299537      -1.46879538
H        3.30513154      -1.25884063      -2.12721138
H        2.14425554       0.98951137      -3.00272638
H       -3.29125846       2.86823637      -0.14340538
H       -4.24130146       1.35010637       0.37457062
H       -2.88078446       2.07743437       1.22409862
