21
Properties=species:S:1:pos:R:3 -405696.47248935874=T pbc="F F F"
C        2.12357807      -0.95203644      -0.18532434
C        1.04837307       1.15881656      -1.59036334
C        2.82430507      -0.34751644      -1.23917334
C        2.30147207       0.72854456      -1.89958834
C       -3.13326193       1.49148756       0.26795566
C        0.92905507      -0.33017344       0.31239766
C        0.38142007       0.70446256      -0.50637434
O       -0.13737393      -0.14984344       2.37263266
O       -2.12645593      -0.66589844      -0.49529034
O       -0.19709593      -2.23891844       1.39077066
C        0.13130307      -0.91277644       1.42317966
C       -2.04103093       0.51676456      -0.23748334
O       -0.89447293       1.28733056      -0.34267834
H       -0.75793793      -2.24289044       2.17807266
H        2.59692507      -1.81815044       0.34777666
H        0.62641707       1.95459456      -2.21779334
H        3.85143207      -0.57681344      -1.58174034
H        2.80844707       1.12378256      -2.75898034
H       -3.52330993       1.09049056       1.16892166
H       -2.67777793       2.49873756       0.34121566
H       -4.02879893       1.51988556      -0.38947434
