21
Properties=species:S:1:pos:R:3 -405685.1742239393=T pbc="F F F"
C        1.76769007      -1.26744587      -0.52061716
C        1.15836607       1.45678913      -1.14463316
C        2.53055307      -0.50433687      -1.45661016
C        2.19015107       0.85180313      -1.68535016
C       -3.16268393       1.50858213       0.31055884
C        0.73603407      -0.56153587       0.06734184
C        0.33437007       0.74109013      -0.25736016
O        0.21714307      -2.47537587       1.41468984
O       -1.98833893       0.01900413      -1.13755916
O       -0.17206293      -0.45651287       2.24024784
C        0.24046507      -1.28710287       1.29815484
C       -1.98484493       0.81591013      -0.22630616
O       -0.79101793       1.30250313       0.34113684
H       -0.57421193      -0.75368787       3.01485384
H        1.77469607      -2.33033187      -0.30361916
H        0.83052107       2.30232313      -1.74259616
H        3.37873807      -0.97286187      -1.98512916
H        2.82136507       1.39185013      -2.42421916
H       -4.06857893       1.06377013      -0.06598016
H       -3.11912093       1.52590213       1.35359584
H       -3.01466793       2.44932013      -0.17255916
