21
Properties=species:S:1:pos:R:3 -405684.5428423952=T pbc="F F F"
C        1.78007759      -1.35371087      -0.65617904
C        0.75764059       1.12155813      -1.44643604
C        1.98511459      -0.93584887      -1.95609504
C        1.44723759       0.30727713      -2.38804004
C       -3.14538141       1.27717713       0.59345396
C        0.93869059      -0.63069887       0.20705796
C        0.33417559       0.59286613      -0.19456704
O        1.53628759      -1.09854387       2.52791996
O       -2.00513841       0.45595513      -1.26299904
O       -0.72652041      -0.95107387       1.81737296
C        0.72701259      -0.99845187       1.64782996
C       -1.91876741       0.96694113      -0.24204904
O       -0.71214541       1.19549713       0.42969796
H       -0.90664741      -1.08138687       2.77410596
H        2.37397559      -2.13226087      -0.14780304
H        0.40860659       2.08986413      -1.88436604
H        2.50479859      -1.63061587      -2.59291604
H        1.64554959       0.68557913      -3.40217304
H       -3.89049741       1.52039113      -0.11652804
H       -3.48605341       0.55706313       1.34020096
H       -2.97492441       2.17757213       1.09869596
