21
Properties=species:S:1:pos:R:3 -405695.7400776707=T pbc="F F F"
C        1.78169664      -1.29213582      -0.61799304
C        0.73353364       1.04915718      -1.64525904
C        2.27256864      -0.75770682      -1.85033504
C        1.76496064       0.47451918      -2.36644404
C       -3.07672536       1.53583818       0.54462796
C        0.82908664      -0.59266982       0.15878396
C        0.31400164       0.55988918      -0.43717704
O        1.17572564      -1.65040682       2.30576296
O       -2.05920736      -0.09448282      -0.76926504
O       -0.65391136      -0.44790182       1.94328096
C        0.50311264      -1.03588682       1.54441996
C       -1.93371836       0.81796918      -0.04059004
O       -0.66524036       1.37225718       0.24812096
H       -0.74349636      -0.54720682       2.88611996
H        2.33718464      -2.10840582      -0.20708204
H        0.37151464       2.06784418      -1.84690704
H        3.11624764      -1.26714682      -2.31596404
H        1.97366364       0.75522918      -3.33470104
H       -3.71779736       0.80257718       0.95669096
H       -2.82697736       2.36229618       1.15123096
H       -3.51807036       1.92031918      -0.37310104
