21
Properties=species:S:1:pos:R:3 -405678.33167926036=T pbc="F F F"
C        2.12119184      -1.30879893      -0.08398973
C        1.32488684       1.22957807      -0.68441373
C        3.00785584      -0.46285093      -0.78545273
C        2.49998684       0.77251307      -1.29202773
C       -3.01848416       1.85795207       0.60160727
C        0.78380384      -0.82587893       0.41345527
C        0.38745484       0.50429307       0.10719727
O       -1.26310416      -1.45282093       1.40180927
O       -1.58997616       2.13457107      -1.53276473
O       -0.05899616      -3.09448793       0.64381927
C       -0.24796716      -1.79485393       0.90487227
C       -1.81863016       1.72997907      -0.40604573
O       -0.84293616       0.97969007       0.42924527
H       -0.75567216      -3.45065293       1.16774427
H        2.30695284      -2.39174593       0.09713227
H        0.87093284       2.14755307      -0.96606173
H        3.95533684      -0.92291993      -1.07946073
H        3.03658984       1.54428807      -1.99310273
H       -3.94898016       1.93820807      -0.02385273
H       -2.86107316       0.85904207       1.21678227
H       -3.02090116       2.75511407       1.21231927
