21
Properties=species:S:1:pos:R:3 -405677.8817336972=T pbc="F F F"
C        2.02158955      -1.25368135       0.13706698
C        1.16299255       1.32545065      -0.76942702
C        2.80938355      -0.44896135      -0.68391902
C        2.47023655       0.78768065      -1.10871302
C       -2.71279345       2.46824965       0.54634898
C        0.79742955      -0.77480735       0.49891398
C        0.42126255       0.51169965       0.02241998
O       -1.27828345      -1.60433335       1.36923398
O       -1.86363645       1.47630065      -1.61368102
O        0.16098555      -3.10307835       0.50083398
C       -0.20342745      -1.78963435       0.83234598
C       -1.75312645       1.57132265      -0.37543302
O       -0.83420945       1.08762165       0.47997898
H       -0.64340145      -3.58869535       0.47348598
H        2.48785455      -2.21255835       0.48236798
H        0.74986055       2.28777265      -1.22680602
H        3.80738155      -0.81164635      -1.10796702
H        3.08723655       1.35714265      -1.76187802
H       -2.17174745       3.43184865       0.73015898
H       -3.42831445       3.02321065      -0.01967402
H       -3.03521345       1.98719365       1.46451298
