21
Properties=species:S:1:pos:R:3 -405680.7328179328=T pbc="F F F"
C        2.14083318      -0.99584883      -0.18379049
C        0.97669218       1.10698317      -1.73286749
C        2.85209318      -0.43622983      -1.25613949
C        2.28558018       0.60169517      -1.97523149
C       -2.90983082       1.69852717       0.88729151
C        0.91640318      -0.43975783       0.22419551
C        0.39113818       0.65550417      -0.45444449
O        0.69806118      -2.27673583       1.56544551
O       -2.41548382      -0.05252983      -0.85251549
O       -1.00703782      -0.75499983       1.75380351
C        0.25423518      -1.13297583       1.29728151
C       -2.11280182       0.87945417      -0.09764349
O       -0.82103082       1.31633617       0.05329951
H       -1.32617582      -1.64479283       1.89163251
H        2.61637418      -1.73736183       0.39545351
H        0.48116518       1.98115417      -2.17527949
H        3.84982718      -0.79720083      -1.64378949
H        2.92036718       1.13437217      -2.69067449
H       -2.97529582       1.27335917       1.91651151
H       -2.48234782       2.66741617       0.96447951
H       -3.89981182       2.11366317       0.53643451
