21
Properties=species:S:1:pos:R:3 -405690.4744750967=T pbc="F F F"
C        2.09516670      -0.91638133      -0.17248679
C        0.95601070       1.10208867      -1.58622379
C        2.75344870      -0.45496833      -1.31041479
C        2.12535470       0.51018467      -2.11699779
C       -3.11300730       1.75220467      -0.00733979
C        0.92096870      -0.34092833       0.31013121
C        0.37154270       0.77889367      -0.38181879
O       -0.72051530      -0.48180933       2.07747821
O       -2.21560930      -0.50896033      -0.52010079
O        0.67215670      -2.16798433       1.72934821
C        0.24063870      -0.88843533       1.47472221
C       -2.08543230       0.63724567      -0.21600379
O       -0.88230630       1.30812067      -0.04504479
H        0.10475270      -2.56545433       2.44808721
H        2.49470070      -1.71081033       0.44676821
H        0.66524270       1.93431967      -2.17954279
H        3.75365570      -0.92517333      -1.69214579
H        2.40708770       0.87455967      -3.19025479
H       -4.03070530       1.82002567      -0.74007079
H       -3.65274530       1.34004767       0.89248021
H       -2.58728230       2.64763567       0.27075121
