21
Properties=species:S:1:pos:R:3 -405693.540093214=T pbc="F F F"
C        2.02169415      -1.21885703      -0.23699254
C        1.43021715       1.46376697      -0.64153654
C        3.01241015      -0.37440803      -0.78366954
C        2.74321415       0.96812597      -0.91667254
C       -2.78048785       1.88097897       0.52455246
C        0.79895115      -0.74918803       0.20820146
C        0.51421215       0.59168097      -0.05638954
O       -1.25751285      -1.05528703       1.61143446
O       -1.73332385       0.74881297      -1.44128354
O       -0.56284285      -2.75466503       0.37006046
C       -0.44612485      -1.50585703       0.85869746
C       -1.71264585       1.15349797      -0.32930754
O       -0.64654485       1.12467497       0.52813246
H       -1.52829985      -3.00269503       0.50719446
H        2.21782015      -2.27616803      -0.19104054
H        1.16263915       2.42468597      -0.84566254
H        4.04034715      -0.65285303      -1.04696254
H        3.42942715       1.71259797      -1.21770154
H       -2.65830585       2.96765097       0.47690046
H       -3.73589085       1.69909397       0.10924046
H       -2.72438185       1.54977297       1.60210646
