21
Properties=species:S:1:pos:R:3 -405681.76790759765=T pbc="F F F"
C        1.81815044      -1.37816922      -0.13473231
C        1.41271344       1.41976778      -0.84024931
C        2.87513144      -0.55107922      -0.65311331
C        2.67943344       0.81932278      -1.11478431
C       -2.74672656       1.58288778       0.73635569
C        0.59782144      -0.61420422       0.17266069
C        0.51348044       0.76152178      -0.02464831
O       -1.67790956      -1.36180322       0.78669269
O       -1.68696656       1.30636278      -1.34640731
O        0.08654644      -2.78847122       0.92390969
C       -0.48081756      -1.52595922       0.64280469
C       -1.63831756       1.39695178      -0.11003231
O       -0.53438156       1.32982678       0.61998369
H       -0.70608756      -3.35702922       0.91336769
H        1.91379444      -2.45139222      -0.08093731
H        1.13956844       2.46587678      -1.08743031
H        3.80788944      -1.02936422      -0.81806231
H        3.55433744       1.16548778      -1.68882931
H       -3.72817556       1.47684878       0.18918569
H       -2.65875456       0.64268278       1.23482469
H       -2.71377356       2.36208878       1.50359469
