21
Properties=species:S:1:pos:R:3 -405681.6438936379=T pbc="F F F"
C        1.94620635      -1.14287633      -0.19829726
C        1.59046135       1.40261567      -0.92818426
C        2.96045235      -0.40132633      -0.81320926
C        2.75400635       0.83962467      -1.28070526
C       -2.97081565       1.97880067       0.38145974
C        0.67314535      -0.60345433       0.13829274
C        0.47733435       0.76861967      -0.29572526
O       -0.84615765      -0.98288333       1.94854974
O       -2.11626565      -0.01057233      -0.62567126
O       -0.44100465      -2.65773933       0.41941874
C       -0.24261465      -1.45470433       0.97360774
C       -1.87277465       1.08399267      -0.23845026
O       -0.60188165       1.52873267      -0.03614526
H       -1.00744965      -3.11923533       1.10936874
H        2.18530735      -2.11765333       0.30750874
H        1.34780035       2.45137567      -1.18125826
H        3.95322635      -0.82833833      -0.79343026
H        3.45109335       1.55882467      -1.57422826
H       -4.04073465       1.54157367       0.26794574
H       -2.66546065       1.80138667       1.54547274
H       -2.94618365       2.97183267       0.16460774
