21
Properties=species:S:1:pos:R:3 -405693.2188783105=T pbc="F F F"
C        1.96508420      -1.27712437      -0.19767820
C        1.06867220       1.19172863      -0.90644320
C        2.78009620      -0.44328637      -1.03264220
C        2.34242020       0.75787263      -1.50922520
C       -2.87880980       2.09374363       0.54431980
C        0.71638420      -0.84674137       0.30533080
C        0.30649520       0.41632363      -0.06874020
O       -1.35248580      -1.76975537       1.23924580
O       -1.70404880       1.91574363      -1.58231220
O        0.61725720      -2.77387537       1.64867980
C       -0.09522480      -1.76131537       1.11910880
C       -1.78736180       1.70711863      -0.40863420
O       -0.86735980       1.01715063       0.35747080
H       -0.08598480      -3.42867737       1.80188080
H        2.24866220      -2.32888937       0.03171380
H        0.71734520       2.19612663      -1.14335720
H        3.74926520      -0.80226937      -1.39125020
H        2.80949820       1.43499563      -2.21395620
H       -2.85231280       1.73597963       1.55197680
H       -3.04178580       3.24146563       0.56893880
H       -3.66741680       1.62626763       0.05419880
