21
Properties=species:S:1:pos:R:3 -405695.88804227405=T pbc="F F F"
C        1.80200258      -1.26569533      -0.44120437
C        1.65226058       1.46716567      -0.45938637
C        2.86314858      -0.53325433      -0.93337437
C        2.86730558       0.86533567      -0.85027637
C       -2.93109342       1.60093067       0.63051463
C        0.58835958      -0.70655633      -0.04859637
C        0.52864858       0.69236167      -0.19432837
O       -1.30308642      -1.02203833       1.48666463
O       -2.15752842       0.74789767      -1.44821337
O        0.12313158      -2.74359933       1.00542563
C       -0.29219642      -1.44316833       0.87766663
C       -1.90713142       1.27522867      -0.38434837
O       -0.61265142       1.41268367       0.18793363
H       -0.31210042      -3.15595133       1.80807763
H        1.94409358      -2.28656933      -0.18730237
H        1.66236858       2.49357167      -0.12460137
H        3.69392958      -1.15835133      -1.28748037
H        3.76009058       1.39782767      -1.04666137
H       -3.85994642       1.89045867       0.20118163
H       -3.07279742       0.63935867       1.20304463
H       -2.69796842       2.40679067       1.35599563
