21
Properties=species:S:1:pos:R:3 -405692.1296068487=T pbc="F F F"
C        1.92966747      -1.23309424      -0.35525615
C        0.93278347       1.29782576      -1.20708815
C        2.57303147      -0.51824224      -1.42453115
C        2.14858147       0.76586476      -1.84060815
C       -3.01317053       1.52150676       0.38435385
C        0.80199747      -0.64033224       0.31530385
C        0.32680347       0.62329576      -0.11794915
O       -1.13347653      -1.54893224       1.60227285
O       -1.82989253       1.03825176      -1.64302115
O        0.88880047      -1.96107124       2.28970885
C        0.05176447      -1.41985724       1.34110585
C       -1.85821553       1.19004676      -0.44666415
O       -0.78692153       1.08285176       0.36688685
H        0.30959547      -2.44187624       2.85127085
H        2.20994247      -2.20441724      -0.10325915
H        0.52249847       2.27228576      -1.55353615
H        3.31103547      -0.92605324      -2.01940715
H        2.61670047       1.37037376      -2.60437415
H       -3.97959853       1.28567476      -0.06047615
H       -3.03523453       1.10152976       1.38919285
H       -2.89719453       2.68903176       0.48894385
