21
Properties=species:S:1:pos:R:3 -405689.65513984824=T pbc="F F F"
C        2.25388720      -0.93607168      -0.23508680
C        0.76205220       0.95995032      -1.62965980
C        2.81516020      -0.26920968      -1.33426480
C        2.06887820       0.77510132      -2.00536580
C       -2.93894180       2.05965732       0.40968320
C        0.97270520      -0.58048868       0.29062220
C        0.24073920       0.43266432      -0.40929580
O        0.77891720      -2.51224868       1.68498320
O       -2.46727680       0.27298832      -1.09712080
O       -0.72931280      -0.80123368       2.06485820
C        0.43135220      -1.37045268       1.42561420
C       -2.12061880       1.03365732      -0.22985580
O       -0.85789480       1.09938432       0.25553020
H       -0.95951580      -1.58505868       2.66882320
H        2.80049920      -1.71947068       0.36157220
H        0.19742120       1.59866432      -2.34682280
H        3.85805320      -0.47538968      -1.48072680
H        2.35633320       1.01784632      -3.02474780
H       -3.86561980       1.60179632       0.79804720
H       -2.46345380       2.37431532       1.36296520
H       -3.34276080       2.93252932      -0.23022580
