21
Properties=species:S:1:pos:R:3 -405691.41533835616=T pbc="F F F"
C        1.99696188      -1.17524070      -0.26007525
C        1.06687488       1.16731030      -1.54734525
C        2.74284588      -0.43451870      -1.27219525
C        2.32469688       0.66478330      -2.00706925
C       -3.10437012       1.51423630       0.51381375
C        0.75988688      -0.57735070       0.18143575
C        0.30291888       0.65261530      -0.48458125
O       -0.89315512      -0.74015170       2.01285075
O       -2.37572612      -0.05238370      -1.18008125
O        1.01361688      -1.93812670       2.19402075
C        0.09542088      -1.11433170       1.44453475
C       -2.13222712       0.80598830      -0.39866125
O       -0.80362812       1.40295430      -0.09228525
H        0.50975288      -2.17827070       2.97490975
H        2.37112088      -2.08893870       0.16362875
H        0.82044288       2.11863430      -2.04506725
H        3.76425088      -0.91567070      -1.57342525
H        2.77272088       1.05500530      -2.90940125
H       -3.14149412       2.58800030       0.32364075
H       -4.15782712       1.13231630       0.58943875
H       -2.65060712       1.45879230       1.50841075
