21
Properties=species:S:1:pos:R:3 -405695.2752544541=T pbc="F F F"
C        1.95612046      -1.16374587      -0.29450817
C        0.98145646       1.05936613      -1.58495617
C        2.66980946      -0.54483487      -1.30026317
C        2.27378546       0.70220913      -1.83592217
C       -3.15923954       1.57591413       0.35027183
C        0.82405346      -0.55724787       0.21105283
C        0.23428846       0.53375713      -0.50655217
O       -0.82299154      -0.46932587       1.89940983
O       -2.12437854      -0.21918487      -0.90672617
O        0.84290446      -2.01744387       2.01480083
C        0.18562646      -0.96644887       1.42213483
C       -2.05906754       0.83576213      -0.29873517
O       -0.80912754       1.39397313      -0.03611317
H        0.58258846      -2.15375287       2.98010483
H        2.52019346      -1.96140187       0.26326183
H        0.51217346       1.95895913      -1.96860917
H        3.57376146      -1.02314187      -1.76247017
H        2.90985646       1.28714613      -2.48101117
H       -3.74763354       0.88995213       1.01814383
H       -2.72980554       2.44036013       0.91977283
H       -3.89828854       1.82460613      -0.43482517
