21
Properties=species:S:1:pos:R:3 -405677.53958254325=T pbc="F F F"
C        2.13816039      -1.01093692      -0.23299075
C        0.84832639       1.16835208      -1.59422475
C        2.45436039      -0.65681292      -1.49652875
C        1.85583539       0.36405208      -2.21280375
C       -3.07432161       1.80946108       0.25557525
C        0.95590839      -0.36728892       0.21345525
C        0.40625839       0.82039208      -0.35248475
O        0.63932639      -2.32602192       1.48133225
O       -2.08310161      -0.24195992      -0.61689675
O       -0.56149261      -0.57299492       2.22197125
C        0.34788839      -1.15444792       1.36028825
C       -1.99308961       0.86633008      -0.10991575
O       -0.75916861       1.48791408       0.25763225
H       -0.94396361      -1.45201392       2.52443925
H        2.56629139      -2.01108792       0.24246725
H        0.31477039       2.07991608      -1.99649575
H        3.37478639      -1.19884392      -1.97118775
H        2.04520939       0.73159208      -3.25296975
H       -3.15823761       2.85217708      -0.08635575
H       -3.99661561       1.41415208      -0.24590975
H       -3.23351361       1.92155608       1.36075425
