21
Properties=species:S:1:pos:R:3 -405674.33899641875=T pbc="F F F"
C        1.92320027      -1.28889235      -0.35741435
C        1.53741427       1.42691065      -0.60036335
C        3.08652527      -0.42716835      -0.61523435
C        2.88677727       0.95488665      -0.70329435
C       -2.88887873       1.60355865       0.72960665
C        0.66318527      -0.81426635      -0.02360735
C        0.51262327       0.58102065      -0.18910035
O       -1.26698973      -1.11117535       1.49379765
O       -1.99260273       1.19835765      -1.52651735
O       -0.47403873      -2.92781535       0.51033165
C       -0.42588773      -1.57900735       0.75167865
C       -1.75000273       1.45585865      -0.30774435
O       -0.47230973       1.24063265       0.40234865
H       -1.27643673      -3.10687535       0.99333965
H        2.16472427      -2.32920235      -0.43818135
H        1.21170927       2.41641965      -0.55115935
H        4.13582727      -0.86286435      -0.72901835
H        3.74177127       1.63108765      -0.82051435
H       -2.37264673       1.20973265       1.69499265
H       -3.05225273       2.59867265       1.09024765
H       -3.82420673       1.05961465       0.45779365
