21
Properties=species:S:1:pos:R:3 -405687.50918313244=T pbc="F F F"
C        1.71265447      -1.24692375      -0.49958904
C        0.77423147       0.89723825      -1.95608104
C        2.46325847      -0.78303275      -1.55787504
C        1.92158447       0.18144425      -2.39850904
C       -2.54445353       2.11419825       1.09414096
C        0.49389747      -0.64723575      -0.02013904
C        0.10699747       0.48243525      -0.77999304
O       -1.55121653      -1.41771175       1.32256196
O       -0.17803053       1.71216525       1.61156596
O        0.25727547      -2.71909275       1.05167296
C       -0.44939653      -1.47499675       0.85267296
C       -1.09937053       1.76121425       0.90961896
O       -1.00745453       1.32077525      -0.54983004
H       -0.37613953      -3.26307175       1.48723996
H        2.06944447      -2.11143075       0.03920796
H        0.45676047       1.85907625      -2.36514604
H        3.30518747      -1.37948575      -1.98326504
H        2.49866447       0.43299725      -3.27684204
H       -2.69339553       2.59925725       2.01385596
H       -2.91523653       2.79876225       0.35349996
H       -3.23296853       1.29058625       1.06330696
