21
Properties=species:S:1:pos:R:3 -405686.93912337895=T pbc="F F F"
C        1.83174527      -1.19622928      -0.38048345
C        1.05253227       1.36141372      -1.27889645
C        2.53089327      -0.46390728      -1.40960745
C        2.14700727       0.81959672      -1.83549045
C       -3.11313373       1.25352172       0.52799555
C        0.82908527      -0.52477028       0.30505755
C        0.40959427       0.75260172      -0.22910745
O        0.06028627      -2.52976128       1.44393155
O       -2.12798273       0.33458772      -1.50815545
O        0.02360827      -0.51084228       2.45204155
C        0.16614227      -1.31258728       1.39889555
C       -1.96021273       0.90875272      -0.46387545
O       -0.77204773       1.26951372       0.18090955
H       -0.59261873      -1.00833728       3.07111055
H        2.08228527      -2.24364528      -0.20811745
H        0.57384627       2.24506972      -1.58676245
H        3.43632027      -0.81096228      -1.94837045
H        2.93638827       1.35759072      -2.35656445
H       -3.93386073       0.59102772       0.59670155
H       -2.61212673       1.44785072       1.51966255
H       -3.55717673       2.18795172       0.21735055
