21
Properties=species:S:1:pos:R:3 -405675.76845662=T pbc="F F F"
C        2.12606984      -1.26190990      -0.46264041
C        0.77431984       1.09665610      -1.60735241
C        2.38304784      -0.85192590      -1.76475541
C        1.78651884       0.29974110      -2.25425441
C       -2.93463416       2.07736210       0.81741259
C        0.94737584      -0.65731290       0.22189959
C        0.32886784       0.57001410      -0.43109041
O        1.24588884      -1.35205090       2.56511459
O       -2.43822716       0.56521710      -1.17934141
O       -0.74063916      -1.58544690       1.58561659
C        0.50733384      -1.14954890       1.58413359
C       -2.11139716       1.10896410      -0.13518741
O       -0.80979016       1.16264210       0.18799459
H       -0.75917416      -1.80513590       2.53662959
H        2.54377384      -2.01163690       0.11507959
H        0.54604484       2.05615210      -2.01591541
H        3.19544284      -1.25530990      -2.44325541
H        1.96582284       0.61553710      -3.25919641
H       -4.01187816       2.00535010       0.52648159
H       -2.83874516       1.94234510       1.88426459
H       -2.44685516       2.98085210       0.52055359
