21
Properties=species:S:1:pos:R:3 -405684.6443607096=T pbc="F F F"
C        2.06952699      -1.13471167      -0.27859006
C        0.87449599       0.96562433      -1.64261806
C        2.57471299      -0.70754967      -1.57513306
C        1.95671799       0.37413233      -2.25379706
C       -2.80942801       2.01714533       0.86264694
C        0.89088699      -0.56221967       0.22203794
C        0.32001099       0.53441733      -0.40849906
O        0.98805399      -1.88375467       2.19620494
O       -2.31216201       0.49003533      -0.99824706
O       -1.10671201      -1.32888367       1.44922394
C        0.31031699      -1.23189567       1.45399594
C       -1.94687401       1.24533633      -0.08001306
O       -0.60775001       1.34382733       0.25098894
H       -1.71336901      -1.88551567       2.01205894
H        2.50466999      -2.08409367       0.20756894
H        0.34203699       1.72985033      -2.14248906
H        3.41253999      -1.29930967      -2.06444306
H        2.11335199       0.73588733      -3.26974806
H       -2.99264601       2.96170633       0.41515194
H       -3.65250801       1.42686733       1.19820994
H       -2.27908601       2.43321433       1.70251994
