21
Properties=species:S:1:pos:R:3 -405686.7640109822=T pbc="F F F"
C        2.03146248      -1.02272820      -0.13208471
C        1.02504548       1.25509680      -1.40164471
C        2.69830348      -0.46187420      -1.22130471
C        2.16275648       0.65169180      -1.90018071
C       -3.07214052       0.82622880       0.58579529
C        0.80700948      -0.44494420       0.30846229
C        0.30661348       0.67234780      -0.34762871
O       -0.66777252      -0.43965320       2.11131429
O       -2.20071252       0.50413080      -1.69847271
O        0.69744548      -2.39143620       1.87277529
C        0.20141248      -1.04012120       1.48938429
C       -2.06102752       0.88494080      -0.50941171
O       -0.87576152       1.33013680       0.12154029
H        0.11768348      -2.78402220       2.54280429
H        2.24240548      -1.93447920       0.41161129
H        0.70640448       2.16464980      -2.00358271
H        3.64241648      -0.94168520      -1.57248071
H        2.54863148       1.00284380      -2.89259771
H       -4.02536952       0.30280880       0.22185629
H       -2.51163052       0.43019080       1.42589429
H       -3.17687152       1.85536580       0.91502729
