21
Properties=species:S:1:pos:R:3 -405682.32186161005=T pbc="F F F"
C        1.85121213      -1.25535687      -0.20389770
C        1.65548013       1.50324713      -0.64425170
C        2.90838513      -0.49540587      -0.62997870
C        2.78610313       0.82928813      -1.03161570
C       -2.70548887       1.80405713       0.99224730
C        0.66631013      -0.64018287       0.17525530
C        0.60404913       0.76169613      -0.08644670
O       -1.58511287      -1.26115587       0.79378530
O       -2.15327187       0.93279813      -1.28776070
O        0.05748313      -2.86096787       0.69755030
C       -0.42134087      -1.53958387       0.62037030
C       -1.85500487       1.21493913      -0.13880070
O       -0.54331987       1.35011613       0.37582130
H       -0.56021587      -3.21768087       1.32939630
H        1.92448613      -2.36649987      -0.20542470
H        1.49818413       2.58996313      -0.70033170
H        3.88106813      -0.95886187      -0.72832170
H        3.57695913       1.35596613      -1.50359770
H       -3.38101987       0.89699813       1.39754230
H       -1.92819687       2.32457813       1.72943330
H       -3.33478287       2.57611313       0.76304130
