21
Properties=species:S:1:pos:R:3 -405690.85337869107=T pbc="F F F"
C        2.04186468      -1.05990275      -0.47882387
C        0.68462868       1.04960225      -1.39988587
C        2.41694768      -0.43011675      -1.60377987
C        1.75261568       0.56938525      -2.19002887
C       -3.06540032       1.92271125       0.18781613
C        0.96968068      -0.57166375       0.25420713
C        0.30562268       0.56772425      -0.19721287
O        0.88531368      -2.40911375       1.87032413
O       -2.26099332       0.05719625      -1.05867387
O       -0.34177432      -0.53177175       2.22000913
C        0.55689568      -1.28951875       1.48646713
C       -2.07143432       0.98604125      -0.30940787
O       -0.81683032       1.23502825       0.38234913
H       -0.60811132      -1.19670975       2.85147213
H        2.65993268      -1.86313475      -0.08853887
H        0.02481668       1.80483025      -1.87322187
H        3.27724168      -0.85539775      -2.05550687
H        2.11912168       1.00081625      -3.08632287
H       -2.90594732       2.35185625       1.14347113
H       -3.13033132       2.75623225      -0.60503787
H       -3.97822832       1.39832125       0.14263913
