21
Properties=species:S:1:pos:R:3 -405694.26465917216=T pbc="F F F"
C        2.05334771      -1.20462414      -0.37660275
C        0.55533071       0.89815086      -1.56506675
C        2.38358171      -0.67932414      -1.63452375
C        1.71481071       0.44674486      -2.13118875
C       -3.02019229       1.77653286       0.62432625
C        0.84354071      -0.78033314       0.19414625
C        0.14564871       0.25999786      -0.40358375
O        1.33433271      -1.91574114       2.34893925
O       -2.05069929       1.43997486      -1.57834775
O       -0.61111329      -0.98013114       2.08900325
C        0.55863471      -1.30646414       1.60116825
C       -1.95712929       1.35340086      -0.37847675
O       -0.99176729       0.65635486       0.27542525
H       -0.55521929      -1.37282014       2.99878325
H        2.70966771      -1.89960914       0.21964525
H        0.04066371       1.74632586      -2.03837275
H        3.31139171      -0.98276414      -2.15499975
H        2.19108871       0.76063086      -3.04885975
H       -3.37273529       2.78789786       0.44913925
H       -3.84919029       1.09491486       0.66938125
H       -2.69303629       1.45695386       1.60867325
