21
Properties=species:S:1:pos:R:3 -405695.90409823786=T pbc="F F F"
C        1.60853636      -1.38616854      -0.54989717
C        0.77702036       0.93721346      -1.98159917
C        2.47013636      -0.77588054      -1.42667317
C        2.00233136       0.34008246      -2.11037217
C       -2.44031064       2.01607746       1.27801183
C        0.37056336      -0.78429754      -0.23086817
C        0.00255636       0.43441546      -0.88730517
O       -1.38904164      -1.21482154       1.25914783
O       -0.13403164       2.06597346       1.36418783
O        0.18675236      -2.79529654       1.12132283
C       -0.36311864      -1.55978254       0.76484283
C       -1.12793064       1.77297846       0.78567383
O       -1.14267464       1.05086046      -0.43833517
H       -0.37944664      -3.03890854       1.91574983
H        1.94348536      -2.33041354      -0.09623117
H        0.59076436       1.89585546      -2.47135117
H        3.42058836      -1.10601154      -1.73072017
H        2.77704036       0.82036746      -2.75786217
H       -3.19900664       2.33400446       0.59830683
H       -2.76442964       1.07668546       1.78089183
H       -2.33550264       2.68250246       2.17964583
