21
Properties=species:S:1:pos:R:3 -405684.9502176786=T pbc="F F F"
C        1.99681209      -1.39128749      -0.29026919
C        1.22102909       1.30006851      -0.84566319
C        2.82749609      -0.58016449      -1.10083119
C        2.39994809       0.79997351      -1.41234119
C       -2.82835191       2.07681051       0.75783981
C        0.73367409      -0.91196349       0.21074081
C        0.39542109       0.39693551      -0.12080219
O       -1.28179291      -2.11134549       0.44334681
O       -1.75661091       1.85216651      -1.49752419
O        0.23041409      -2.10960649       2.13006981
C       -0.25461191      -1.78808149       0.90338381
C       -1.70540191       1.72941651      -0.25218419
O       -0.77957991       0.86331351       0.51028981
H       -0.57603791      -2.36513449       2.68812781
H        2.15290009      -2.47977449      -0.19400519
H        0.86206409       2.34113951      -1.16958319
H        3.83389909      -0.93111249      -1.33488019
H        2.94237009       1.43669851      -2.19132819
H       -3.71446691       1.87873251       0.03563281
H       -2.79283091       1.43848751       1.66803681
H       -2.75682191       3.14543351       0.92532581
