21
Properties=species:S:1:pos:R:3 -405678.0874258238=T pbc="F F F"
C        2.02188112      -1.09792419      -0.18501589
C        1.28660912       1.32937981      -1.09450089
C        2.81845412      -0.54294119      -1.13453189
C        2.49194512       0.80045381      -1.55800189
C       -3.18231088       1.88134981       0.10598111
C        0.79948512      -0.48282219       0.34519711
C        0.49542512       0.71467481      -0.10961989
O       -0.76568788      -0.79876519       2.03427011
O       -1.98913688       0.06815681      -0.96491789
O        0.01157412      -2.67692219       0.85317411
C       -0.04349288      -1.26218419       1.18504011
C       -1.95121788       1.01455081      -0.24266989
O       -0.72012188       1.42556881       0.28469511
H       -0.64806888      -3.17697519       1.43315811
H        2.24507012      -2.12505419       0.25208011
H        0.81073612       2.22534481      -1.23313589
H        3.57369512      -1.07190019      -1.53737389
H        3.09949612       1.45272281      -2.31622989
H       -3.86464088       1.21712781       0.77008211
H       -2.95529188       2.91063681       0.42649911
H       -3.69476488       1.98819681      -0.81827789
