21
Properties=species:S:1:pos:R:3 -405682.99681258184=T pbc="F F F"
C        1.86244705      -1.25446047      -0.45849459
C        0.89292105       1.14854453      -1.55713659
C        2.52047605      -0.67581447      -1.49864359
C        2.07286805       0.56958953      -2.04992159
C       -2.89947595       1.78423453       0.69302141
C        0.72342905      -0.63391747       0.10635741
C        0.28913405       0.54500753      -0.51551259
O        1.24369805      -1.63809247       2.09128341
O       -2.34138395       0.17817053      -1.06618859
O       -0.94285295      -1.11963247       1.94141741
C        0.37738705      -1.16005747       1.43595441
C       -2.03595595       0.92209153      -0.15863359
O       -0.73595395       1.35457253       0.08266841
H       -0.72235495      -1.19717347       2.92513041
H        2.24807305      -2.12301447      -0.07703159
H        0.54210405       2.18325453      -1.77874359
H        3.46314405      -0.98349747      -1.96907359
H        2.52434805       0.87690953      -2.87353459
H       -4.04425495       1.76945653       0.56742741
H       -2.84389695       1.29293153       1.66093541
H       -2.38661995       2.79588953       0.81532741
