21
Properties=species:S:1:pos:R:3 -405690.13114902907=T pbc="F F F"
C        1.91994976      -1.21883613      -0.42936979
C        1.03827376       1.28177287      -1.55394979
C        2.46159276      -0.80639313      -1.65439479
C        2.01676376       0.49778187      -2.18486779
C       -3.08532024       1.62040487       0.69917221
C        0.87023576      -0.52297113       0.14168421
C        0.37320776       0.66452987      -0.44838979
O        0.62043176      -2.23504013       1.87542321
O       -2.25346524       0.11505387      -0.99752079
O       -0.46293424      -0.30007813       2.14162621
C        0.49797176      -1.12031613       1.45572321
C       -2.03278924       0.89260287      -0.11553279
O       -0.79061524       1.20259887       0.17838421
H       -0.86643924      -0.89052313       2.81167721
H        2.19559576      -2.16804313       0.03230721
H        0.65952476       2.13713987      -2.17609879
H        3.18345076      -1.42552713      -2.17852579
H        2.43688876       0.88194387      -3.13754279
H       -3.52715424       0.99141787       1.44427321
H       -2.72676324       2.53608487       1.12519021
H       -3.88330224       1.91671687       0.02355921
