21
Properties=species:S:1:pos:R:3 -405678.4289620317=T pbc="F F F"
C        1.94466307      -1.06988605      -0.22424987
C        1.04263007       1.17496995      -1.52674287
C        2.64833307      -0.58891705      -1.29346787
C        2.17611607       0.48038995      -1.98227087
C       -2.96651993       0.84500595       0.80825613
C        0.80960007      -0.45155905       0.23447713
C        0.38722207       0.72994395      -0.38098087
O        0.14865807      -2.28619405       1.53445313
O       -2.38938493       0.52149595      -1.49127187
O       -0.13448593      -0.18623605       2.24769113
C        0.26471807      -1.06934005       1.42020413
C       -2.00482493       0.78996595      -0.33693287
O       -0.80136893       1.23415795       0.17270713
H       -0.59911393      -0.65788405       2.99254913
H        2.31700807      -1.95766005       0.17214013
H        0.61433607       2.01566395      -1.99995687
H        3.55741107      -1.23274505      -1.59199687
H        2.86568707       0.92799295      -2.75751087
H       -2.86611693      -0.13287105       1.45434613
H       -2.75883293       1.83802695       1.30467413
H       -3.93815593       0.56666895       0.40169313
