21
Properties=species:S:1:pos:R:3 -405682.7821260025=T pbc="F F F"
C        2.10779051      -1.04225581      -0.33457022
C        0.71790551       1.07509219      -1.67469122
C        2.64662251      -0.38683781      -1.40427622
C        2.03747151       0.62974019      -2.14430422
C       -3.01747749       2.03538119       0.30189178
C        0.97991551      -0.49010581       0.29078078
C        0.31027651       0.54373119      -0.47222422
O        0.98546151      -2.21483181       2.05963078
O       -2.45253249      -0.06785381      -0.83124022
O       -0.76787349      -0.91333181       1.96912678
C        0.49028051      -1.18887881       1.56177778
C       -2.08754949       0.92755619      -0.20624222
O       -0.76578049       1.24422919       0.07996178
H       -0.97514549      -1.46859481       2.74101678
H        2.71203551      -1.78030681       0.07422678
H       -0.01143549       1.68374119      -2.06905322
H        3.49743251      -0.65792581      -1.96652022
H        2.32440051       1.01441719      -3.11599022
H       -4.09303749       1.72575719       0.21293878
H       -2.73704149       2.60790619       1.20608778
H       -2.92640849       2.80620819      -0.49669522
