21
Properties=species:S:1:pos:R:3 -405684.629019101=T pbc="F F F"
C        1.63470010      -1.49799342      -0.65798559
C        0.88478310       0.95285558      -1.56001759
C        2.47072210      -0.81356642      -1.43438759
C        2.16632210       0.48548758      -1.88638959
C       -2.63540290       2.11923958       1.33082041
C        0.47829410      -0.96092342      -0.20010259
C        0.10289210       0.27692358      -0.61576259
O       -0.69498990      -1.24153742       1.80227741
O       -0.44381490       2.84081958       0.71498741
O       -0.35165490      -3.05997542       0.37021641
C       -0.34817890      -1.77471742       0.79056541
C       -1.27461190       1.96297158       0.70008841
O       -1.03426490       0.76249358      -0.14317359
H       -0.98936390      -3.53851142       0.86839141
H        1.79259510      -2.55006742      -0.49575359
H        0.55890410       1.97552858      -1.85672359
H        3.31464110      -1.38118542      -1.96215159
H        2.80845210       1.03683558      -2.56002259
H       -3.45294290       1.82711258       0.64340841
H       -2.68672990       1.56912958       2.31634541
H       -2.70639090       3.20867158       1.56121741
