21
Properties=species:S:1:pos:R:3 -405687.2198159558=T pbc="F F F"
C        1.96002363      -1.34149977      -0.21508738
C        1.19595263       1.29075423      -1.02444038
C        2.86394963      -0.56852777      -1.01943038
C        2.46320963       0.72702123      -1.44404838
C       -2.96166537       1.74749423       0.72412262
C        0.77901463      -0.80805577       0.20497262
C        0.47759763       0.51846723      -0.11016738
O       -1.40179937      -1.68658677       0.58538462
O       -1.73484037       1.88675523      -1.48102538
O        0.24336463      -2.42097177       2.00398962
C       -0.25461037      -1.67941677       0.97434562
C       -1.74078937       1.53328223      -0.30856438
O       -0.71410137       0.97078023       0.49889362
H       -0.30377937      -2.70540377       2.70817162
H        2.21493063      -2.33848577       0.16356962
H        1.00371763       2.35556523      -1.40893038
H        3.82188463      -1.03501977      -1.23351338
H        3.15975063       1.09318723      -2.15804738
H       -3.85175637       2.03181023       0.12022862
H       -3.03626537       0.85806923       1.30596662
H       -2.70338237       2.67708123       1.40733662
