21
Properties=species:S:1:pos:R:3 -405697.375706725=T pbc="F F F"
C        2.00082103      -1.19850242      -0.47123586
C        0.92584903       1.20171658      -1.38532386
C        2.56556303      -0.56457642      -1.62316186
C        2.05852903       0.69914358      -2.07592086
C       -3.00611297       1.80228658       0.61377014
C        0.91250503      -0.63422642       0.26360214
C        0.34641103       0.54711758      -0.26027486
O        1.10772503      -1.78372142       2.32152114
O       -2.35386897       0.46515058      -1.23189086
O       -0.94713197      -1.25123942       1.52022314
C        0.38882803      -1.33156542       1.47124614
C       -2.06741397       1.03923258      -0.26462386
O       -0.76415797       1.12033658       0.34077914
H       -1.19453197      -1.62816042       2.36880214
H        2.43032203      -2.22864442      -0.22860086
H        0.50949903       2.20214158      -1.76774886
H        3.21302503      -1.26865542      -2.23957386
H        2.51760103       1.29436358      -2.83599786
H       -4.02412297       1.41433958       0.61284514
H       -2.66076397       1.91843058       1.59492914
H       -2.96982797       2.71827558       0.10203014
