21
Properties=species:S:1:pos:R:3 -405680.6340578013=T pbc="F F F"
C        1.93245338      -1.24903667      -0.55573573
C        1.04369938       1.27781933      -1.53213773
C        2.76173538      -0.56441467      -1.44646173
C        2.24728838       0.74653733      -1.85329273
C       -3.04235062       1.93270433       0.39113727
C        0.81001838      -0.57182967       0.06388327
C        0.24807938       0.55515933      -0.58914073
O        0.64399938      -2.29288267       1.71447527
O       -2.50545862      -0.34366267      -0.29703673
O       -0.36611962      -0.34640967       2.02989227
C        0.34906538      -1.13961867       1.31455827
C       -2.16094762       0.77975733      -0.03180773
O       -0.85959562       1.26965933      -0.12293573
H       -0.72514662      -0.78466267       2.82053927
H        2.17032938      -2.23148267      -0.42364373
H        0.71679138       2.28027533      -1.77253873
H        3.69159938      -0.81050167      -1.84776773
H        2.75770638       1.40378033      -2.55343573
H       -3.28010562       2.40302933      -0.52926873
H       -3.83966862       1.39196533       0.82577827
H       -2.37400562       2.49854733       1.19279227
