21
Properties=species:S:1:pos:R:3 -405697.1649286107=T pbc="F F F"
C        2.02883148      -1.22409696      -0.40644394
C        0.77761048       1.02297704      -1.54471294
C        2.43161348      -0.77263496      -1.67560994
C        1.80752748       0.35506504      -2.22299994
C       -2.87323852       2.01264804       0.78229706
C        0.91328948      -0.65318796       0.20354706
C        0.26590848       0.48568004      -0.39821594
O        1.11484848      -1.59186796       2.38492906
O       -2.17288852       0.66280004      -1.21399094
O       -0.97287252      -1.34139596       1.50147506
C        0.34784548      -1.32895696       1.46409906
C       -1.93606552       1.22879604      -0.17380994
O       -0.64314852       1.16351204       0.44140506
H       -1.35217952      -1.69481596       2.37094506
H        2.48343448      -2.04780096       0.07071506
H        0.25057648       1.88376604      -2.00142294
H        3.30685948      -1.26990296      -2.15567494
H        2.10734448       0.83044304      -3.16070294
H       -3.11475752       1.15367304       1.38537606
H       -2.34150352       2.91188004       1.12565006
H       -3.70971952       2.39035204       0.23869106
