21
Properties=species:S:1:pos:R:3 -405698.21834686026=T pbc="F F F"
C        2.24897789      -0.95371633      -0.25093002
C        0.66227889       0.74806767      -1.71505802
C        2.54136089      -0.68053533      -1.59750002
C        1.76548589       0.25473067      -2.32646202
C       -2.93146311       1.72100567       0.87138098
C        1.01361189      -0.50942133       0.23613498
C        0.23739289       0.38137867      -0.46524002
O        1.28847389      -1.33707533       2.50542298
O       -2.51312111       0.67031367      -1.27212802
O       -0.84905611      -1.35184533       1.60329098
C        0.53316189      -1.03283633       1.57831898
C       -2.09288311       1.08342267      -0.22162802
O       -0.79050111       1.07892167       0.19112198
H       -0.92502111      -1.94196633       2.43178998
H        2.73944189      -1.72695233       0.40516598
H        0.10856689       1.51193567      -2.34472402
H        3.51169389      -0.98534133      -2.01943102
H        2.06323689       0.37612567      -3.38699702
H       -3.17174311       1.04197167       1.65846898
H       -2.39021111       2.55718967       1.25702798
H       -3.84342011       2.02967067       0.27604798
