21
Properties=species:S:1:pos:R:3 -405699.79194944754=T pbc="F F F"
C        2.00368555      -0.96067914      -0.13057345
C        0.80880755       1.00956686      -1.58360545
C        2.58324055      -0.56235314      -1.32738645
C        2.00941055       0.43635086      -2.06914345
C       -3.14760645       1.68166386       0.35349155
C        0.84747855      -0.49836114       0.40050655
C        0.25531655       0.55072986      -0.38474045
O       -0.89483845      -1.07381314       1.92699055
O       -2.15831045       0.37396686      -1.53276645
O        1.23821555      -1.84517514       2.31117255
C        0.25699055      -1.21437914       1.52916355
C       -2.04980045       1.03259086      -0.50867945
O       -0.84378545       1.21338086       0.16899055
H        0.80901655      -2.06950514       3.15273355
H        2.58397455      -1.68442714       0.46119755
H        0.38201955       1.79293386      -2.18819545
H        3.55468455      -0.92308614      -1.68253645
H        2.62462555       0.93664886      -2.86623045
H       -2.78438645       2.55699786       0.95890955
H       -4.00930845       1.90414586      -0.30169445
H       -3.44271345       1.05627686       1.15212255
