21
Properties=species:S:1:pos:R:3 -405683.37498413713=T pbc="F F F"
C        1.96253009      -1.15730407      -0.61895071
C        1.02976109       1.36220193      -1.42575871
C        2.52022709      -0.50617707      -1.68461271
C        1.99851509       0.66683993      -2.15868071
C       -2.99008291       1.70967993       0.00496029
C        0.89418509      -0.54613007      -0.02026471
C        0.42181009       0.71212193      -0.35845171
O        0.23379609      -2.34972707       1.45584829
O       -2.33633791      -0.51490607       0.21738129
O       -0.11952791      -0.10844307       2.11640029
C        0.27021409      -1.11967107       1.27516629
C       -2.02974091       0.62908293       0.20943829
O       -0.76280791       1.28429293       0.06837329
H       -0.35513691      -0.58040407       3.01074729
H        2.49101909      -2.03303107      -0.10159571
H        0.71141609       2.37838193      -1.60442271
H        3.26819909      -0.97349607      -2.33565571
H        2.53222309       1.25504693      -2.95046771
H       -3.88777391       1.54066693       0.59658229
H       -2.63870991       2.78079293       0.07449529
H       -3.29818891       1.58963593      -1.03823471
