21
Properties=species:S:1:pos:R:3 -405694.18344922643=T pbc="F F F"
C        2.06283392      -0.99565203      -0.32706427
C        0.82750192       1.05037897      -1.74629127
C        2.54121192      -0.67122203      -1.55397227
C        1.92601892       0.43818397      -2.28247527
C       -2.97749608       1.68519397       0.70513673
C        0.91771092      -0.28746403       0.22813473
C        0.31869392       0.75100897      -0.50756427
O        0.70203792      -2.18308903       1.53988473
O       -2.19682308      -0.29951603      -0.51325327
O       -0.57036108      -0.45288403       2.23909273
C        0.35143492      -1.00818203       1.38990173
C       -1.99598708       0.79197097      -0.02457827
O       -0.77049208       1.38256897      -0.07116227
H       -0.75640508      -1.15330803       2.94766573
H        2.33035992      -1.97455703       0.15896273
H        0.22748792       1.75648097      -2.27936927
H        3.21378192      -1.30967803      -2.00947127
H        2.10130292       0.69405597      -3.29108027
H       -3.06115208       1.20118897       1.69651573
H       -2.40368008       2.67585997       0.87935373
H       -3.94106808       1.86876797       0.23892473
