21
Properties=species:S:1:pos:R:3 -405690.53346382966=T pbc="F F F"
C        2.03922097      -1.18953468      -0.13127697
C        1.39039597       1.32444432      -0.87588597
C        2.93086997      -0.59164768      -0.87175197
C        2.66332197       0.79469132      -1.15614997
C       -2.98311703       1.89501732       0.49751303
C        0.80104597      -0.64911468       0.25394903
C        0.48449397       0.67606632       0.02981003
O       -1.14418103      -1.06662268       1.66594303
O       -1.84942703       0.70467832      -1.38959297
O       -0.12387303      -2.78511468       0.60620603
C       -0.30016403      -1.46318268       0.89192303
C       -1.92409003       1.24703332      -0.31540497
O       -0.70615703       1.40533132       0.41683703
H       -0.95443203      -3.15400068       1.04851503
H        2.27824097      -2.18208968       0.19819203
H        0.98548297       2.32355932      -1.16981297
H        3.88910497      -1.05200668      -1.15105597
H        3.34588097       1.40195832      -1.77788997
H       -3.93975903       1.68019532      -0.01455397
H       -2.96145803       1.39416832       1.50829203
H       -2.70752303       2.89584432       0.70702503
