21
Properties=species:S:1:pos:R:3 -405683.64675861184=T pbc="F F F"
C        1.94619067      -1.11528860      -0.34671694
C        1.18751167       1.28804040      -1.34337394
C        2.72343767      -0.58758560      -1.33886194
C        2.28140467       0.60935940      -1.86700994
C       -3.14723233       1.54960840       0.33837606
C        0.77011167      -0.44367160       0.14834306
C        0.34210667       0.75491640      -0.43116394
O       -0.76277433      -0.33580660       1.92625406
O       -2.25584833      -0.35774660      -0.87024294
O        0.76493867      -2.12629560       1.87349006
C        0.17729567      -0.94824260       1.41264606
C       -2.12542633       0.69262040      -0.26877394
O       -0.84146933       1.26372740      -0.04189994
H        0.32955867      -2.19525160       2.72299106
H        2.36345167      -1.91056560       0.19878006
H        0.76848167       2.26485840      -1.58862294
H        3.70671567      -0.98516660      -1.79825394
H        2.66766567       1.13573540      -2.73504794
H       -2.93189033       2.56937140       0.49941806
H       -4.00234433       1.45868240      -0.40102694
H       -3.25694633       0.92971840       1.28745006
