21
Properties=species:S:1:pos:R:3 -405689.3333924436=T pbc="F F F"
C        1.61214020      -1.52974303      -0.82044958
C        0.83419520       0.96743297      -1.86753258
C        2.51268920      -0.85953403      -1.68164758
C        2.08123320       0.38574197      -2.28219758
C       -2.60430280       1.95295497       1.31116242
C        0.46512420      -0.88189103      -0.33684758
C        0.10642320       0.38191397      -0.86955658
O       -1.60388680      -1.21420303       0.97822142
O       -0.16498080       1.85882197       1.64027042
O        0.27723720      -2.33168403       1.58577742
C       -0.43071380      -1.47514703       0.69050342
C       -1.13435780       1.60399697       0.99124142
O       -1.03025980       1.11621997      -0.43868658
H       -0.21242180      -2.10835803       2.43678842
H        1.87591820      -2.52024303      -0.50471258
H        0.34831820       1.79906097      -2.43564658
H        3.32990420      -1.49890303      -2.04435058
H        2.61713820       0.73152297      -3.18764758
H       -3.04981580       2.64067297       0.51702042
H       -3.17906780       0.99680897       1.16134142
H       -2.69417980       2.52130197       2.22525842
