21
Properties=species:S:1:pos:R:3 -405698.3801787087=T pbc="F F F"
C        2.01688213      -1.02228369      -0.28707584
C        1.05196313       1.32187531      -1.51978684
C        2.78160813      -0.47223269      -1.33558784
C        2.18849213       0.66156631      -1.97181884
C       -3.10364687       1.70091031       0.45912016
C        0.87967113      -0.37279169       0.20988516
C        0.33176313       0.75368031      -0.47009184
O        0.46846213      -2.47071469       1.47556516
O       -2.27065387      -0.29038569      -0.55163084
O       -0.52985487      -0.55664169       2.09375316
C        0.29822513      -1.26655169       1.28351916
C       -2.06174387       0.84430631      -0.11126484
O       -0.84443087       1.41637831      -0.08127884
H       -0.98194687      -1.27502769       2.65220216
H        2.37830313      -1.89005969       0.27226616
H        0.57910113       1.99722431      -2.17104584
H        3.56133213      -1.15395269      -1.68997984
H        2.80117713       1.14458131      -2.78014584
H       -3.21684887       1.64350431       1.56424216
H       -2.91260187       2.74817031       0.19075916
H       -3.98569387       1.38001431      -0.07276584
