21
Properties=species:S:1:pos:R:3 -405686.79393188254=T pbc="F F F"
C        2.01323924      -1.26879750       0.03588884
C        1.42428124       1.36521750      -0.66440316
C        3.05192824      -0.49252050      -0.58418816
C        2.77609724       0.85561350      -0.96812616
C       -2.86423776       2.05673550       0.67922184
C        0.69571424      -0.82928050       0.32359884
C        0.48582524       0.58310250       0.00072884
O       -1.37639476      -1.32554050       1.23906884
O       -1.88334876       1.33089050      -1.43868416
O       -0.20220476      -2.98475050       0.12709884
C       -0.41498476      -1.71011050       0.63091584
C       -1.77116476       1.42820150      -0.19854716
O       -0.62802076       1.25139350       0.59735884
H       -0.82903976      -3.51955250       0.62458284
H        2.16279824      -2.33685950       0.18212084
H        1.02004224       2.41202750      -0.77264316
H        4.06027424      -0.89766950      -0.75747216
H        3.41697424       1.36628750      -1.64095616
H       -3.82107876       2.30413550       0.24012884
H       -3.16118876       1.46876950       1.58957184
H       -2.19556476       2.95488750       1.07455884
