21
Properties=species:S:1:pos:R:3 -405682.1886453465=T pbc="F F F"
C        2.11424300      -1.09905251      -0.39861309
C        0.66326200       1.10719349      -1.62109009
C        2.54539600      -0.50712551      -1.54588309
C        1.83384500       0.58217649      -2.11883209
C       -2.95995600       2.16694249       0.32929991
C        0.85655700      -0.71494951       0.11012191
C        0.25395800       0.43360549      -0.42667909
O        1.41161200      -1.82647851       2.08011391
O       -2.53250100       0.17970149      -1.04408509
O       -0.76010000      -1.12844051       2.06132891
C        0.49651900      -1.21011951       1.52558191
C       -2.09011200       1.08074649      -0.25290009
O       -0.79264100       1.02328049       0.35575891
H       -0.80919000      -1.80228151       2.79633891
H        2.67880500      -1.86454551       0.11744591
H        0.06269600       1.89133849      -2.13851809
H        3.59854500      -0.53905351      -1.86179509
H        2.22172000       0.94626849      -3.02419109
H       -4.03433200       2.05392249       0.16464991
H       -2.80149800       1.94882849       1.35097391
H       -2.70283100       3.26840649       0.16969391
