21
Properties=species:S:1:pos:R:3 -405687.5426635381=T pbc="F F F"
C        2.06851034      -1.20730908      -0.43902240
C        0.86698634       1.12992592      -1.49869440
C        2.61728134      -0.60473308      -1.66003740
C        1.88501034       0.51601292      -2.21427940
C       -2.91351666       1.96284792       0.62020460
C        0.87647234      -0.65031108       0.19352860
C        0.35771434       0.50782292      -0.37437740
O        1.04023934      -1.74554208       2.35737860
O       -2.39943766       0.11697692      -0.90408240
O       -0.90024566      -1.02296808       1.55656260
C        0.42541934      -1.15543508       1.43717660
C       -2.05887866       1.01702392      -0.16564240
O       -0.75137966       1.18339992       0.17949560
H       -1.04946266      -1.51605508       2.37055260
H        2.69926534      -2.06321608       0.08959060
H        0.37946634       2.00957792      -1.74338340
H        3.63875134      -0.95038508      -1.92963440
H        2.33057034       1.20234992      -2.99087740
H       -3.04116966       1.62342192       1.65677260
H       -2.42304366       2.91694292       0.58033960
H       -3.86607766       2.02879392       0.18088560
