21
Properties=species:S:1:pos:R:3 -405684.5801805257=T pbc="F F F"
C        1.61856670      -1.45645798      -0.91326254
C        0.92055370       0.93324202      -1.84264054
C        2.31243270      -0.99899998      -1.99465454
C        2.02342270       0.28440502      -2.46210654
C       -2.60698130       2.14011402       1.05464846
C        0.47638370      -0.81994398      -0.34956254
C        0.10493570       0.35571302      -0.85671954
O       -1.51543230      -1.10695298       1.07890146
O       -0.49385530       1.38243402       1.95463646
O        0.57660270      -2.00493998       1.59574346
C       -0.35283930      -1.37419198       0.79015846
C       -1.25546430       1.48811502       1.02722146
O       -0.95922230       1.13783802      -0.29827454
H        0.02542870      -2.57538098       2.26963646
H        2.01977070      -2.39595098      -0.41962154
H        0.69231670       2.01000302      -2.02589054
H        2.90908370      -1.80597598      -2.44042054
H        2.60778270       0.62051102      -3.30313054
H       -2.64732030       2.63863602       2.00250146
H       -2.77615230       2.87169702       0.30618146
H       -3.45976130       1.45340202       0.92072346
