21
Properties=species:S:1:pos:R:3 -405686.5410585552=T pbc="F F F"
C        2.07986963      -0.79492083      -0.07713881
C        1.04547863       1.11920717      -1.71195181
C        2.76687263      -0.49942483      -1.25340081
C        2.20521963       0.45700517      -2.04369681
C       -3.11572037       1.37880717       0.42534019
C        0.86941663      -0.19416583       0.35365919
C        0.35105063       0.81931617      -0.53237381
O       -0.42829237      -0.28054083       2.34573819
O       -2.11634337      -0.51273183      -0.80779481
O        0.14996563      -2.18510383       1.47671819
C        0.20325663      -0.84382383       1.50932219
C       -2.02358337       0.58014517      -0.17904781
O       -0.81764437       1.32007817      -0.21974581
H       -0.45317837      -2.53370483       2.08287019
H        2.58891363      -1.50519583       0.56358919
H        0.56540963       1.76443717      -2.50032081
H        3.57075463      -1.18287883      -1.47256881
H        2.58488963       0.76944817      -3.03805681
H       -2.69696437       2.13436217       1.14475419
H       -3.55376237       1.98026717      -0.35475281
H       -3.79836437       0.81432217       1.00163819
