21
Properties=species:S:1:pos:R:3 -405697.61066089=T pbc="F F F"
C        1.70543231      -1.55479376      -0.67985735
C        0.86822831       1.03891824      -1.46455835
C        2.51888731      -0.80341876      -1.56663735
C        1.99813631       0.45504424      -1.98808735
C       -2.63241369       2.07141224       1.21698865
C        0.53128531      -1.00270876      -0.15991235
C        0.19879131       0.31381024      -0.47320035
O       -0.58348769      -1.33629576       1.93705865
O       -0.47614169       2.92900324       0.53591965
O       -0.48573369      -3.09634276       0.37850165
C       -0.30568369      -1.75919776       0.76833565
C       -1.30104969       2.00163024       0.55556365
O       -1.05236769       0.80474824       0.08098065
H       -0.97988569      -3.43940376       1.14366965
H        1.89529631      -2.56949476      -0.37005835
H        0.52312431       2.04803024      -1.65831435
H        3.48890631      -1.10157076      -1.88988235
H        2.63113531       0.97071424      -2.72898635
H       -2.98637169       3.04713224       1.53558965
H       -3.35044869       1.66869724       0.50011765
H       -2.63954569       1.41026024       2.07072265
