21
Properties=species:S:1:pos:R:3 -405679.68983416207=T pbc="F F F"
C        1.66300910      -1.54362068      -0.90398877
C        0.83507610       0.89871432      -1.85098477
C        2.53262910      -0.87454468      -1.71063677
C        2.02845610       0.37614932      -2.20543077
C       -2.53496790       1.89428132       1.30540523
C        0.48544610      -0.84538668      -0.32469977
C        0.06347810       0.39101932      -0.77915077
O       -1.58216990      -1.18027968       1.00325623
O       -0.13589990       1.90229532       1.58904723
O        0.19901410      -2.30038368       1.54589023
C       -0.44443090      -1.45677968       0.69938523
C       -1.13357790       1.56616332       0.98597123
O       -1.06152590       1.12076832      -0.46356277
H       -0.25212090      -2.35194968       2.45970923
H        1.96477710      -2.47528868      -0.40369677
H        0.32058110       1.71267432      -2.39880977
H        3.59650610      -1.27355268      -1.93134077
H        2.49152210       1.00001632      -2.94307177
H       -2.94040990       2.51383832       0.43542923
H       -3.10396790       0.98564632       1.20402723
H       -2.73695490       2.31693132       2.22250923
