21
Properties=species:S:1:pos:R:3 -405672.4008287194=T pbc="F F F"
C        2.12668316      -1.14547427      -0.28538768
C        0.79260816       1.03619773      -1.47764568
C        2.68080916      -0.53198027      -1.46910268
C        1.87609416       0.40477273      -2.09879668
C       -2.89968584       2.12228073       0.48709232
C        0.90838716      -0.66620127       0.26725732
C        0.24265216       0.51975173      -0.26839268
O        1.15273216      -1.29972127       2.50965932
O       -2.46992384       0.52427873      -1.28905668
O       -0.83608184      -1.84953827       1.38068232
C        0.42407316      -1.33411627       1.50295232
C       -2.12564784       1.21455573      -0.32496068
O       -0.79211084       1.11663873       0.26279232
H       -0.96651884      -2.16337227       2.31855332
H        2.51742416      -2.02417927       0.22246832
H        0.48439316       1.89565173      -1.96918868
H        3.62648016      -0.85819427      -1.76364168
H        2.15734316       0.58520173      -3.12999468
H       -3.91914584       2.12767873       0.61111732
H       -2.53170384       1.99402773       1.49052532
H       -2.55946084       3.09514773       0.42732832
