21
Properties=species:S:1:pos:R:3 -405683.97594138636=T pbc="F F F"
C        1.26415308      -1.62037955      -1.14383883
C        1.20025608       1.17978445      -1.48660383
C        2.03794208      -0.97447355      -2.12689683
C        2.05194808       0.43152245      -2.27906283
C       -2.60308992       2.12431745       0.92578517
C        0.47269008      -0.85883555      -0.23753383
C        0.39612608       0.47277045      -0.59168783
O       -1.56116092      -1.80692655       0.70878717
O       -0.36023092       1.77475945       1.76677417
O        0.40195308      -1.90570355       1.95415817
C       -0.41439692      -1.53507455       0.81586517
C       -1.16062992       1.62892445       0.86106417
O       -0.86531092       1.08053345      -0.30486783
H       -0.28905292      -2.38258255       2.45683517
H        1.31973708      -2.69767655      -0.87587983
H        1.19144108       2.26115745      -1.44809783
H        2.88323908      -1.43309955      -2.61516483
H        2.79960208       0.86635245      -2.96610183
H       -2.59728792       2.88034345       1.78291217
H       -2.76737892       2.70561045       0.05218417
H       -3.33023492       1.30284645       0.81348417
