21
Properties=species:S:1:pos:R:3 -405679.2835438928=T pbc="F F F"
C        1.98707153      -1.34281516      -0.22270344
C        1.28776853       1.26087784      -0.90324944
C        2.71969553      -0.60261616      -1.16370144
C        2.33995853       0.65290284      -1.44956544
C       -2.94212547       2.04520684       0.71188656
C        0.81384853      -0.82099416       0.21968856
C        0.40829653       0.50536284      -0.07392144
O       -1.25159847      -1.62819216       0.57422156
O       -1.92743247       1.41782684      -1.45362844
O        0.41027953      -2.34572916       1.96933656
C       -0.11676047      -1.67185416       0.94078356
C       -1.86627747       1.61932884      -0.22611944
O       -0.71246147       1.09528984       0.53458956
H       -0.34232647      -3.08172416       2.09088356
H        2.22045453      -2.39107916       0.02883856
H        1.18005053       2.34387384      -1.02672444
H        3.61573353      -1.08837516      -1.65262444
H        2.94250353       1.21700184      -2.23219144
H       -3.88953347       1.57559884       0.45984456
H       -2.57267647       1.97007484       1.80948056
H       -3.05101947       3.04716884       0.54112356
