21
Properties=species:S:1:pos:R:3 -405680.7178214579=T pbc="F F F"
C        1.99885273      -1.21995521      -0.08646803
C        1.28545073       1.29063779      -0.69320103
C        2.93596373      -0.42251121      -0.74764503
C        2.42464573       0.79147779      -1.17833103
C       -2.83817827       2.44449179       0.42266697
C        0.63503573      -0.81652021       0.24771997
C        0.36114073       0.52587079       0.01896597
O       -1.37074527      -1.64844221       1.39829897
O       -1.63919827       1.37242579      -1.50460303
O        0.19923873      -3.04392221       0.56701197
C       -0.33492727      -1.76523421       0.82937597
C       -1.67014027       1.64117279      -0.28506903
O       -0.83487427       1.13550179       0.65305697
H       -0.19331027      -3.75855521       1.18390097
H        2.25028973      -2.10492521       0.51696797
H        0.92525573       2.30883479      -1.00069903
H        3.98308673      -0.80730021      -0.90452703
H        3.11020773       1.39200379      -1.72857703
H       -2.57224627       3.58769979       0.52989197
H       -3.70187527       2.36111779      -0.22508803
H       -3.07052427       2.28664179       1.47854897
