21
Properties=species:S:1:pos:R:3 -405688.0797394424=T pbc="F F F"
C        1.96226661      -1.18149858      -0.47440845
C        0.87222761       1.28013642      -1.39534645
C        2.44051761      -0.59868558      -1.61796745
C        1.93266861       0.66704542      -1.95515545
C       -2.93792039       1.37922042       0.69438655
C        0.83798061      -0.63387858       0.19162355
C        0.34094061       0.57318542      -0.29519445
O        1.00861761      -2.00891858       2.12157555
O       -2.00509339       0.67373642      -1.48706245
O       -1.01148939      -0.93007858       1.93850455
C        0.32487961      -1.24764458       1.48726255
C       -1.92661539       0.95733242      -0.32822045
O       -0.75299939       1.13643242       0.26627055
H       -1.17671839      -1.35271958       2.78483055
H        2.27464461      -2.07207658      -0.09744845
H        0.57717761       2.27833442      -1.64596245
H        3.38936461      -0.84948958      -2.21274145
H        2.31919761       1.18671442      -2.82545945
H       -2.53665039       0.98096242       1.74454055
H       -2.92433939       2.52161242       0.79325955
H       -3.90908539       0.99079342       0.36957355
