21
Properties=species:S:1:pos:R:3 -405678.7289398639=T pbc="F F F"
C        2.09580840      -1.04191605      -0.29665111
C        0.87546940       1.07037495      -1.70851611
C        2.45801240      -0.67973205      -1.56741111
C        1.93852240       0.37267295      -2.26957511
C       -2.90887060       1.68970795       0.87747689
C        0.85583440      -0.51032505       0.21759589
C        0.39937540       0.69524895      -0.43966811
O        1.07727340      -1.60743705       2.40841089
O       -2.19642560       0.31109495      -1.00791411
O       -1.10166160      -1.42415505       1.49821089
C        0.29798340      -1.29827505       1.50665889
C       -1.95594660       1.03179395      -0.11231911
O       -0.66995860       1.50167395       0.05054089
H       -1.35463860      -1.44785305       2.42290289
H        2.56031140      -1.83257005       0.13697089
H        0.31537740       1.92394495      -2.13676311
H        3.27892740      -1.07564805      -2.26410811
H        2.24662940       0.60390195      -3.28986611
H       -2.62248360       1.29172795       1.88973489
H       -2.95631360       2.83136595       1.00528289
H       -3.88549660       1.21800795       0.58469589
