21
Properties=species:S:1:pos:R:3 -405683.0527880296=T pbc="F F F"
C        2.23578894      -0.97691754      -0.27753162
C        0.69315594       0.95513446      -1.64704862
C        2.73782494      -0.39752254      -1.51458362
C        1.89493394       0.46109946      -2.18406562
C       -3.05320806       1.66824946       0.66408738
C        1.01476694      -0.49414354       0.36294238
C        0.23015594       0.49037846      -0.48014062
O        0.85694594      -2.20630854       2.04001738
O       -2.34415706       0.19917946      -1.24431062
O       -0.67987706      -0.57818254       2.15862538
C        0.48676394      -1.21897154       1.53313738
C       -2.15378406       0.98079446      -0.35917662
O       -0.80330506       1.18311246       0.07055538
H       -0.85157306      -1.15560654       2.91998838
H        3.01919294      -1.63055154       0.26103038
H        0.27234094       1.81998146      -2.23625862
H        3.74302794      -0.70160954      -1.92582862
H        2.13258094       0.82846546      -3.20694362
H       -3.62460706       2.46590946       0.21380638
H       -3.84342206       0.95390446       1.04856938
H       -2.36129106       2.19299646       1.38344138
