21
Properties=species:S:1:pos:R:3 -405688.8708819055=T pbc="F F F"
C        1.78259166      -1.33262606      -0.48406905
C        1.45847566       1.44416894      -0.40191005
C        2.80469066      -0.38830306      -0.90616005
C        2.57619166       0.95859594      -0.95439005
C       -2.67940534       2.52904394       0.36962695
C        0.58846866      -0.83644606       0.00062595
C        0.52540766       0.58858294       0.12228495
O       -1.54881334      -1.69552706       0.71789695
O       -1.86864834       1.08673494      -1.27215405
O        0.26948166      -2.86754206       1.12804395
C       -0.36994034      -1.77791806       0.70491695
C       -1.68120234       1.49356494      -0.13862505
O       -0.69292734       1.11440994       0.75951695
H       -0.35079734      -3.58937006       1.46868295
H        2.04439066      -2.39692306      -0.59921405
H        1.22031466       2.50376294      -0.63435705
H        3.69502066      -0.75520706      -1.41535105
H        3.45929566       1.59388494      -1.35871005
H       -3.45595234       2.62817494      -0.39074705
H       -3.12000734       2.17862694       1.30844795
H       -2.13126434       3.42811594       0.55589795
