21
Properties=species:S:1:pos:R:3 -405688.55119478796=T pbc="F F F"
C        2.12706054      -0.84670882      -0.03717018
C        0.64874054       0.72166018      -1.75048218
C        2.68967054      -0.51237482      -1.30714018
C        1.88664254       0.20300618      -2.14186018
C       -3.11199246       1.83240118       0.28316182
C        0.90518954      -0.51721382       0.35482982
C        0.14864054       0.39456418      -0.48353818
O       -0.77627246      -1.34705582       1.75220682
O       -2.37283246       0.27133618      -1.40716718
O        1.41828054      -1.03845082       2.57111582
C        0.38167354      -1.03769782       1.61046482
C       -2.15400546       0.88416718      -0.41741518
O       -0.91768146       1.01908818       0.09567682
H        0.98776554      -1.42165982       3.39683582
H        2.72838554      -1.44390682       0.70982082
H        0.06199454       1.45352318      -2.40085318
H        3.71310454      -0.87333782      -1.55645818
H        2.42428854       0.29546618      -3.07989318
H       -3.45496746       1.35866718       1.17673482
H       -2.47380846       2.50858318       0.76734982
H       -3.88437746       2.14529118      -0.50606318
