21
Properties=species:S:1:pos:R:3 -405683.91061855503=T pbc="F F F"
C        1.74169393      -1.46347534      -0.65306361
C        0.86857093       1.09319566      -1.54184561
C        2.43215093      -0.76473834      -1.71999961
C        1.96689593       0.47844066      -2.17471161
C       -2.68655107       2.51248266       0.89345539
C        0.58084093      -0.92092534      -0.06002861
C        0.08343393       0.33980766      -0.63585461
O       -1.13883207      -1.05914634       1.62802939
O       -0.17944907       1.97416866       1.31087339
O        0.02507493      -3.02157234       0.76484839
C       -0.28287307      -1.65751834       0.90773139
C       -1.25083407       1.78628066       0.74831039
O       -1.21945007       0.80839666      -0.30983061
H       -0.59461907      -3.51286634       1.27739339
H        2.01288593      -2.45935934      -0.21596361
H        0.52416293       2.09490366      -1.69999561
H        3.22961993      -1.16909734      -2.28555861
H        2.42515393       1.01867966      -3.04166861
H       -3.18191407       2.29626266       0.00261139
H       -3.22978507       2.04693966       1.68445739
H       -2.42601507       3.57534466       0.85214639
