21
Properties=species:S:1:pos:R:3 -405689.68262471585=T pbc="F F F"
C        1.97172514      -1.10303666      -0.33642290
C        0.70627714       1.22613934      -1.31737990
C        2.43068314      -0.51465866      -1.45194990
C        1.82235014       0.65940134      -1.88970790
C       -3.05219386       2.11523634      -0.05287190
C        0.77602714      -0.63164966       0.24479010
C        0.20064214       0.51363134      -0.17858290
O        1.29009114      -2.32085066       1.86975310
O       -2.26015986       0.43305634      -1.51448090
O       -0.41926786      -0.96162966       2.45434110
C        0.59361914      -1.41765266       1.57338410
C       -2.06352686       1.09731934      -0.49549690
O       -1.00559386       1.04812934       0.33814710
H       -0.27246986      -1.52260366       3.23366810
H        2.29891814      -2.02551466       0.12523810
H        0.16425814       2.05293834      -1.82819790
H        3.32722314      -0.93137666      -1.98580790
H        2.26660214       1.03106934      -2.85169390
H       -3.22300186       2.69449534      -1.02541690
H       -3.97083386       1.46541034       0.00354910
H       -2.89320986       2.66786634       0.85851310
