21
Properties=species:S:1:pos:R:3 -405681.5033616538=T pbc="F F F"
C        1.80503845      -1.27140311      -0.45853445
C        1.01749445       1.17740489      -1.52622245
C        2.60127045      -0.73516811      -1.48344045
C        2.18578045       0.51402089      -2.09025945
C       -2.98073955       1.22660089       0.97092255
C        0.75251945      -0.49221811       0.12372255
C        0.28436545       0.61750589      -0.50155345
O        0.20814445      -2.21511611       1.56298355
O       -2.20856255       0.08195889      -1.02430145
O       -0.10898655      -0.04436011       2.33315855
C        0.29726345      -1.04573411       1.40986155
C       -2.03674855       0.85211989      -0.18778745
O       -0.73007655       1.37002589      -0.05400245
H       -0.23278055      -0.41475111       3.22144055
H        2.04372745      -2.29158211      -0.18495145
H        0.56087145       2.02811889      -2.03966545
H        3.39249145      -1.33423011      -1.84742845
H        2.40607245       0.81807689      -3.17219645
H       -2.50966455       1.17137389       1.97928855
H       -3.47297455       2.26264789       0.86842455
H       -3.87223155       0.53682889       1.02467555
