21
Properties=species:S:1:pos:R:3 -405687.1337237614=T pbc="F F F"
C        2.10940770      -0.93611151      -0.37597677
C        0.76641670       0.99579249      -1.58939177
C        2.61711770      -0.52548751      -1.55436277
C        1.84164470       0.41876249      -2.26501777
C       -2.81588430       2.09655949       0.52765923
C        0.98093270      -0.50912451       0.25200223
C        0.24706670       0.52051149      -0.37175377
O        1.15859270      -1.99021251       2.23744123
O       -2.53723730       0.14146849      -0.94814777
O       -0.86968530      -1.13831551       1.62731623
C        0.46937970      -1.21127651       1.58326823
C       -2.05845530       1.05411949      -0.22382677
O       -0.77976630       1.21291849       0.23488223
H       -1.18128630      -1.62210351       2.44654923
H        2.63508870      -1.72987451       0.28760123
H        0.31761070       1.84617249      -2.06453977
H        3.49727770      -0.91402351      -1.94557977
H        2.32592970       0.94736149      -3.20571177
H       -3.80463230       2.20436249       0.13449223
H       -2.97012730       1.67214149       1.61921023
H       -2.26592030       3.08529849       0.54600823
