21
Properties=species:S:1:pos:R:3 -405687.03103164997=T pbc="F F F"
C        1.71158228      -1.46776946      -0.71666995
C        0.93598228       1.08064854      -1.45139995
C        2.39152028      -0.74677646      -1.71277495
C        2.10132528       0.63435554      -2.04559295
C       -2.49819072       2.14850554       1.39635805
C        0.46923228      -0.98263246      -0.10520095
C        0.09269228       0.28718754      -0.63579795
O       -1.36935872      -1.26567346       1.38180905
O       -0.12526572       2.49571454       0.74750405
O        0.02443128      -2.99580246       1.06555305
C       -0.43095372      -1.71424946       0.72396405
C       -1.17229272       1.85293054       0.62854205
O       -1.19669672       0.74000854      -0.20728995
H       -0.41195672      -3.12597946       1.91937305
H        2.01922428      -2.47137846      -0.54122595
H        0.53706728       2.05962054      -1.54325595
H        3.11930328      -1.29648046      -2.34713195
H        2.54746328       1.27790654      -2.73489795
H       -2.21486872       2.79790854       2.16478905
H       -3.11083472       2.77303854       0.65618105
H       -3.03518972       1.26016954       1.66893905
