21
Properties=species:S:1:pos:R:3 -405689.880717939=T pbc="F F F"
C        1.94462328      -1.20594230      -0.39417189
C        0.70284628       1.07376670      -1.61595089
C        2.46724028      -0.66506130      -1.59238189
C        1.79853928       0.37772270      -2.18730489
C       -3.02528972       1.61501870       0.70599311
C        0.89586028      -0.48581630       0.24531111
C        0.28843328       0.60064170      -0.37400189
O        1.09150828      -1.87585930       2.21262711
O       -2.05530472       0.22810370      -1.10931289
O       -0.83959472      -0.90630530       1.76729111
C        0.46436528      -1.15412430       1.45908611
C       -1.93635472       1.05282970      -0.21096589
O       -0.72254272       1.40144270       0.21694311
H       -1.09828572      -1.50149830       2.46488211
H        2.45564028      -1.92922430       0.18720811
H        0.26359328       2.00773470      -2.02920189
H        3.48234728      -1.03484930      -1.93046089
H        2.23633728       0.66666270      -3.10315389
H       -3.99965172       1.47863670       0.11348311
H       -3.04575572       1.48587570       1.75392511
H       -3.07354272       2.72377270       0.74496011
