21
Properties=species:S:1:pos:R:3 -405687.1712465202=T pbc="F F F"
C        1.57691522      -1.46688059      -0.71714587
C        0.80083322       1.02003541      -1.81113887
C        2.24498922      -0.89730959      -1.77622887
C        1.95746022       0.38699541      -2.31435487
C       -2.62137778       1.77760941       1.11147213
C        0.44801822      -0.80939959      -0.22932087
C        0.09186722       0.44959741      -0.81244687
O       -1.38675778      -1.20127459       1.37800713
O       -0.20795978       2.06150341       1.49999013
O        0.31799622      -2.66801859       1.34424913
C       -0.27780278      -1.48840059       0.89936213
C       -1.13145778       1.67674641       0.84865713
O       -0.96199478       1.24422541      -0.50314987
H       -0.12983878      -3.00969559       2.21427413
H        1.96391022      -2.41835559      -0.33567987
H        0.68974922       2.02271841      -2.05020187
H        3.13605222      -1.42074659      -2.02727687
H        2.48412422       0.74167941      -3.22768587
H       -3.04188078       2.48022341       1.90177413
H       -3.23420078       1.98000841       0.14972313
H       -3.12335878       0.84088741       1.51672113
