21
Properties=species:S:1:pos:R:3 -405685.5344769595=T pbc="F F F"
C        2.19321201      -0.84182425      -0.05859504
C        0.84684301       0.88786475      -1.84465404
C        2.87604901      -0.27483625      -1.19414204
C        2.15805601       0.51728875      -2.16203204
C       -3.22879799       1.31266975       0.40241696
C        0.85056501      -0.40602525       0.24620196
C        0.25297501       0.50684075      -0.67847904
O       -0.16219999       0.13766475       2.28139796
O       -2.14630599      -0.56268525      -0.71563704
O        0.12060901      -2.06505725       1.72717896
C        0.25993901      -0.72135525       1.51691296
C       -2.10148699       0.52476075      -0.17831004
O       -0.85076799       1.17583175      -0.19469104
H        0.12312501      -2.21000925       2.64733796
H        2.77860401      -1.39129925       0.59100596
H        0.35748501       1.68313975      -2.32010404
H        3.90372501      -0.56330225      -1.46162204
H        2.42268701       0.83970375      -3.10216404
H       -3.31736999       2.09260375      -0.36336504
H       -4.04870199       0.61362875       0.64794096
H       -2.89929699       1.86922575       1.22958796
