21
Properties=species:S:1:pos:R:3 -405681.32507081603=T pbc="F F F"
C        1.83595618      -1.39011362      -0.46968835
C        0.70109618       1.02758338      -1.48666835
C        2.48241018      -0.59135062      -1.46325635
C        1.93668218       0.60806438      -1.91296335
C       -2.44249382       2.33284138       1.26739965
C        0.59074018      -0.91251762       0.02783765
C        0.02974018       0.20730438      -0.59432535
O       -0.70167682      -1.54810262       2.00576965
O       -0.23561982       2.59398238       0.39152665
O       -0.53033782      -2.85794262       0.16288965
C       -0.12103882      -1.79417962       0.93423965
C       -1.22436682       1.81544138       0.46872065
O       -1.31999782       0.58075638      -0.04704135
H       -0.98413882      -3.51452362       0.72011265
H        2.26375118      -2.29527262      -0.02796635
H        0.14685618       1.92797238      -1.81191635
H        3.45971218      -0.73607062      -1.91254535
H        2.37043718       1.23903438      -2.71730435
H       -2.05177782       3.30468038       1.64488265
H       -3.34691082       2.58531038       0.62615365
H       -2.72788982       1.51512438       2.03678165
