21
Properties=species:S:1:pos:R:3 -405676.00163806294=T pbc="F F F"
C        2.01725763      -1.13686269      -0.23783156
C        0.73388863       0.87025731      -1.59571756
C        2.50114763      -0.70643769      -1.45847956
C        1.82318463       0.27072631      -2.20884856
C       -3.22414737       1.19270631       0.32349544
C        0.86969163      -0.67944169       0.31678444
C        0.19553163       0.35629631      -0.38464956
O       -0.62305037      -1.70873069       2.01676344
O       -2.07393737       1.01833831      -1.68858756
O        1.26878263      -0.47084869       2.57844644
C        0.35664163      -1.04175069       1.62973644
C       -2.05117237       1.07911131      -0.51189956
O       -0.90538037       0.91973731       0.30096144
H        1.09769263      -0.98098269       3.43925844
H        2.45757363      -2.11411269      -0.03110856
H        0.06733163       1.60925931      -2.05362256
H        3.36129363      -1.39416869      -1.57658156
H        2.24504963       0.68704931      -3.20969456
H       -3.70986637       2.19536931       0.11157544
H       -3.86733437       0.26314331       0.18067644
H       -2.98012837       1.13108831       1.37717844
