21
Properties=species:S:1:pos:R:3 -405694.33156965254=T pbc="F F F"
C        1.95542640      -1.12842424      -0.49126113
C        0.95907040       1.31093776      -1.30461113
C        2.43749540      -0.48678624      -1.68162213
C        1.90998240       0.73927376      -2.10341313
C       -3.09464860       1.68663876       0.25148087
C        0.87945940      -0.55268024       0.33625987
C        0.33508140       0.66324076      -0.16758613
O        0.84279940      -2.31655824       1.84995787
O       -2.04496460       0.16668376      -1.29410913
O       -0.62863760      -0.64465824       2.24807087
C        0.32817540      -1.26826224       1.52624287
C       -1.96828860       0.88239776      -0.33728813
O       -0.83735260       1.09813676       0.36625087
H       -0.73779760      -1.09965424       3.14805787
H        2.32258040      -2.07449624      -0.18762613
H        0.63661540       2.29562676      -1.58431113
H        3.16690640      -1.05540324      -2.22786413
H        2.29999740       1.18587976      -3.05315613
H       -3.11886960       2.38938776      -0.61970813
H       -3.91577460       1.00759776       0.33191787
H       -2.86051360       2.29009176       1.17130487
