21
Properties=species:S:1:pos:R:3 -405689.5097505799=T pbc="F F F"
C        2.05470835      -1.01620187      -0.25067515
C        1.04068935       1.31765113      -1.43571815
C        2.74011535      -0.46283887      -1.28663215
C        2.37609835       0.81184313      -1.71694415
C       -3.15929165       1.29489413       0.52905185
C        0.82163235      -0.51072687       0.13626685
C        0.24766435       0.71164013      -0.51026915
O       -0.80367465      -0.45197287       2.02619385
O       -2.20066165      -0.17633487      -1.07737515
O        0.73876135      -2.22363387       1.74471685
C        0.03180235      -1.06956787       1.33889885
C       -1.99698265       0.67866713      -0.25525715
O       -0.84350065       1.37286913      -0.05963415
H        0.19207535      -2.62295487       2.48764185
H        2.43366935      -1.91572887       0.17743085
H        0.85984135       2.35924313      -1.75672915
H        3.59180035      -0.93754287      -1.74276115
H        3.07495235       1.35372513      -2.36502115
H       -3.11843165       0.99882913       1.66738785
H       -3.06863365       2.39938913       0.64156185
H       -4.11196065       0.93822013       0.18234285
