21
Properties=species:S:1:pos:R:3 -405695.526820513=T pbc="F F F"
C        1.85802908      -1.36584721      -0.39025022
C        1.56396008       1.46269479      -0.47121622
C        2.82677008      -0.51183821      -0.93051022
C        2.72574708       0.86749079      -0.92694322
C       -3.03191992       1.82892279       0.46471378
C        0.72561208      -0.76641521       0.21340578
C        0.52829708       0.66929879       0.01006778
O       -1.47017692      -1.23332521       1.21333678
O       -1.67183292       1.27552479      -1.44194622
O       -0.02990292      -2.97543521       0.76012578
C       -0.38881892      -1.56914021       0.81281778
C       -1.75266592       1.35759379      -0.22290122
O       -0.61353192       1.27754679       0.58965778
H       -0.76456192      -3.44567921       1.18497678
H        1.94828108      -2.45357921      -0.35608622
H        1.47003808       2.47840479      -0.41567422
H        3.83359508      -0.88890121      -1.31015222
H        3.65478308       1.29952479      -1.35774822
H       -3.11614392       1.51705579       1.47904978
H       -3.21534192       2.86565879       0.32986378
H       -3.92204192       1.41518279      -0.19252722
