21
Properties=species:S:1:pos:R:3 -405681.4209151305=T pbc="F F F"
C        1.94110340      -1.10964344      -0.43734662
C        1.04677640       1.16873556      -1.67622462
C        2.70190040      -0.54620344      -1.47558262
C        2.32583940       0.64372156      -1.99283562
C       -3.02107560       1.66860056       0.65805838
C        0.70178340      -0.47138644       0.09530238
C        0.34280040       0.70478956      -0.56365462
O        0.48495040      -2.33432644       1.59790238
O       -2.17620960      -0.42781144      -0.34669162
O       -0.56295460      -0.20315944       2.15306238
C        0.23280740      -1.14981144       1.26968338
C       -2.05432760       0.75328356      -0.03518262
O       -0.81130960       1.42322656      -0.15662162
H       -1.09504960      -0.89309044       2.62869738
H        2.17523940      -2.13816844      -0.00125762
H        0.64380440       2.07525356      -2.07721462
H        3.54118240      -1.10925144      -2.00328762
H        2.90627740       1.12640856      -2.84712162
H       -3.75029860       1.94616056      -0.10703162
H       -3.65726760       1.16213856       1.48548038
H       -2.33013760       2.51415656       0.88515338
