21
Properties=species:S:1:pos:R:3 -405681.95437717444=T pbc="F F F"
C        2.25230176      -0.93918273      -0.39918370
C        0.59203876       0.89049927      -1.68086770
C        2.51117576      -0.54056873      -1.75667670
C        1.73109876       0.48233827      -2.25870170
C       -3.00708124       1.69802327       0.54136630
C        1.12360776      -0.51009573       0.31109930
C        0.27542976       0.43667927      -0.38273170
O        0.67675176      -2.21560173       2.08977930
O       -2.49735624       0.06836827      -1.12492770
O       -0.03525424      -0.03384973       2.19490830
C        0.55207176      -1.07875573       1.68407330
C       -2.18683924       0.78993127      -0.27703070
O       -0.88827424       0.93332727       0.16364930
H       -0.61966224      -0.37354473       2.95166730
H        2.80921476      -1.77224273       0.06501430
H       -0.06565424       1.59113427      -2.19844170
H        3.33055876      -1.00239773      -2.31160570
H        1.85808876       0.76663027      -3.26116470
H       -2.89069724       1.52687027       1.66708030
H       -2.53895324       2.61282527       0.36512430
H       -4.09902824       1.82159127       0.20819230
