21
Properties=species:S:1:pos:R:3 -405679.7276985121=T pbc="F F F"
C        1.84007641      -1.22138785      -0.37210858
C        1.06733641       1.14193615      -1.49481158
C        2.55864141      -0.76002385      -1.55994458
C        2.13094041       0.40044515      -2.17772058
C       -2.97052359       1.23007615       0.91025842
C        0.82908141      -0.59380785       0.14996742
C        0.38661341       0.65006115      -0.38228258
O        1.00316641      -1.27334285       2.39995242
O       -2.25199759       0.66164515      -1.42289158
O       -1.07823259      -1.32470385       1.64422442
C        0.33319741      -1.02096585       1.45913542
C       -1.98215959       0.94803415      -0.31948758
O       -0.72560559       1.25096215       0.26634242
H       -1.19829959      -1.66779985       2.57249642
H        2.43483241      -2.01946485       0.11837242
H        0.92429541       2.14948715      -1.96719958
H        3.34795541      -1.36670785      -1.92899358
H        2.51168841       0.85824515      -3.06958058
H       -2.79152259       2.25665215       1.28646442
H       -4.08175759       0.99187115       0.58983342
H       -2.62687259       0.45587915       1.66095242
