21
Properties=species:S:1:pos:R:3 -405675.8033051649=T pbc="F F F"
C        1.88085722      -1.40158913      -0.50624791
C        0.71283022       1.12949387      -1.36922691
C        2.44119122      -0.74220313      -1.62410791
C        1.73283122       0.42115987      -2.04345891
C       -3.26645978       1.52860787       0.33236909
C        0.84620822      -0.69816213       0.26945609
C        0.18331622       0.42016187      -0.23508491
O        1.12789522      -2.41584913       1.99363709
O       -1.87813078       1.91708387      -1.57387691
O       -0.24037978      -0.75274913       2.49615909
C        0.66551422      -1.34856813       1.64612509
C       -2.06637978       1.30574087      -0.51256291
O       -1.17656778       0.63742587       0.24512409
H       -0.06386478      -1.25237713       3.35405609
H        2.24769722      -2.31289913      -0.10948491
H        0.28680622       1.97393287      -1.77698091
H        3.07017822      -1.49615613      -2.10416391
H        2.16732422       0.77296087      -2.97766991
H       -3.27310378       0.78002387       1.08644709
H       -3.09490678       2.55922287       0.75667409
H       -4.21265178       1.40288687      -0.26072691
