21
Properties=species:S:1:pos:R:3 -405693.9391696516=T pbc="F F F"
C        1.89224220      -1.28263923      -0.39490485
C        1.24355920       1.35752377      -0.94218685
C        2.66537220      -0.59135823      -1.28866185
C        2.38405620       0.78292377      -1.43020085
C       -2.83440680       1.91981877       0.65419215
C        0.81769220      -0.73890223       0.30446615
C        0.47920820       0.60963177      -0.04294285
O       -1.41939780      -1.69868123       0.68410015
O       -1.77577780       1.33938577      -1.44669585
O        0.34770720      -2.41172623       1.97089815
C       -0.22927180      -1.61731523       1.04704615
C       -1.75408480       1.39211077      -0.26301085
O       -0.64526480       1.13272877       0.58626015
H       -0.45626380      -2.80857423       2.46860515
H        2.09806920      -2.31875023      -0.16876785
H        1.01896920       2.38608977      -1.25087385
H        3.52598220      -0.91429423      -1.77621885
H        2.97630120       1.39768577      -2.04113385
H       -3.81740180       1.81187777       0.18882715
H       -2.77655680       1.55876877       1.70782115
H       -2.67470580       3.07723777       0.44564315
