21
Properties=species:S:1:pos:R:3 -405684.43504768=T pbc="F F F"
C        1.75834297      -1.43997421      -0.78785177
C        0.65037397       1.04637479      -1.40931977
C        2.45236197      -0.62556521      -1.63734677
C        1.90926197       0.62655079      -1.98337677
C       -2.60667503       2.30010579       0.85087923
C        0.55225197      -0.99391321      -0.12229677
C        0.03045497       0.23506279      -0.39603277
O       -0.83291903      -1.26611921       1.85068623
O       -0.12890003       2.58065579       0.60255523
O       -0.23316003      -3.11304021       0.55018623
C       -0.23186003      -1.76158921       0.85288923
C       -1.19951803       1.92114079       0.60338123
O       -1.21763603       0.57312479       0.18717123
H       -0.78451203      -3.53817521       1.16298223
H        2.29128697      -2.34594921      -0.41248277
H        0.21235397       2.02390079      -1.52607077
H        3.38842297      -1.04430621      -1.98138877
H        2.53053597       1.42567979      -2.52803177
H       -2.57778703       3.08600879       1.61279623
H       -2.86258703       2.72283379      -0.18584377
H       -3.37883503       1.54122679       1.19442423
