21
Properties=species:S:1:pos:R:3 -405687.66376677685=T pbc="F F F"
C        1.95970398      -1.35913784      -0.43663520
C        1.31993198       1.32589616      -0.40817820
C        2.75132798      -0.48092284      -1.13861420
C        2.54394198       0.91908816      -0.94878220
C       -2.88396902       2.13084716       0.42686180
C        0.55892298      -0.94053884      -0.07500720
C        0.31538098       0.43160316       0.00737780
O       -1.44060402      -1.59883784       1.04508380
O       -1.73516302       1.50421616      -1.57977720
O        0.62231898      -2.54839384       1.56642280
C       -0.25997702      -1.77821084       0.91683580
C       -1.79476202       1.54991416      -0.37768120
O       -0.88070302       1.01828516       0.49496280
H        0.17719798      -3.14661284       2.16842980
H        2.24611798      -2.47158284      -0.33878220
H        1.05105298       2.36305316      -0.52866920
H        3.52777198      -0.88160684      -1.72612220
H        3.18417398       1.68926816      -1.46782920
H       -3.70166202       2.57520716      -0.19565720
H       -3.26084402       1.29282316       1.05974380
H       -2.42711202       2.95021216       1.01555280
