21
Properties=species:S:1:pos:R:3 -405688.6413843936=T pbc="F F F"
C        1.90725337      -1.25644267      -0.21704772
C        1.33978037       1.43477733      -0.47683872
C        2.70767137      -0.44432067      -1.00522672
C        2.44278837       0.89844133      -1.11540472
C       -2.84846863       1.95733233       0.50862828
C        0.70429537      -0.81810267       0.29435428
C        0.44921937       0.54895833       0.20257628
O       -1.48194063      -1.48331667       0.86913228
O       -1.40041663       1.62722233      -1.39220972
O       -0.01203363      -3.12244167       0.75516828
C       -0.31961363      -1.78122667       0.74377528
C       -1.64293963       1.46907033      -0.22755572
O       -0.64177463       1.22756333       0.81262228
H       -0.95662563      -3.39193167       0.64310228
H        2.29757037      -2.24776367      -0.03440672
H        1.09101237       2.53898733      -0.54951372
H        3.69939537      -0.76755367      -1.32568572
H        3.00278737       1.54370633      -1.85253372
H       -3.78103063       1.57609033       0.02355328
H       -2.75140563       1.67144933       1.55213228
H       -2.91839663       2.95151333       0.35542428
