21
Properties=species:S:1:pos:R:3 -405690.88910845097=T pbc="F F F"
C        1.61569586      -1.59090609      -0.96553987
C        0.97261086       1.03411691      -1.64467787
C        2.43823286      -0.88748409      -1.83988887
C        2.11719886       0.44909691      -2.11039087
C       -2.68604114       1.92952791       1.06465213
C        0.46063586      -1.01392009      -0.36627587
C        0.17202986       0.35073891      -0.70306987
O       -1.10025614      -0.82453609       1.47660313
O       -0.40183314       2.16593491       1.58256313
O       -0.08174314      -2.73820809       1.12429713
C       -0.30000014      -1.52036309       0.80256913
C       -1.16625614       1.69120691       0.82777213
O       -1.06156614       0.91986391      -0.33035887
H       -0.59126514      -3.07100709       1.82254413
H        1.97874486      -2.56708909      -0.66711387
H        0.75842886       2.08792691      -1.85778487
H        3.38560286      -1.36794809      -2.22894987
H        2.74600086       1.14042191      -2.62828987
H       -2.90269114       2.82393291       1.70730413
H       -3.21057914       2.22157391       0.13475713
H       -3.33146514       1.03866991       1.32438013
