21
Properties=species:S:1:pos:R:3 -405686.16269578=T pbc="F F F"
C        2.17645024      -0.94149780      -0.19318771
C        0.60608424       0.85208320      -1.72691071
C        2.61325024      -0.49762380      -1.42401171
C        1.76416124       0.30080820      -2.25761971
C       -2.99222076       2.13432620       0.50985829
C        0.93396524      -0.47446580       0.33051529
C        0.23641224       0.58605820      -0.45170371
O        1.21051824      -2.00146380       2.02514329
O       -2.28589576       0.20551720      -0.94442971
O       -0.92206276      -1.27376780       1.72804829
C        0.45609324      -1.21148280       1.47545529
C       -1.98928676       1.12993920      -0.14283571
O       -0.70869276       1.36038920       0.26386429
H       -1.06141176      -2.04606080       2.34444129
H        2.76269924      -1.67081580       0.23799329
H        0.03382524       1.65820520      -2.25802071
H        3.60731324      -0.90807180      -1.82401171
H        2.09252224       0.69004220      -3.13895571
H       -4.00697376       2.00737320       0.06643629
H       -3.04123276       1.85772220       1.52005529
H       -2.74284876       3.17708820       0.49099429
