21
Properties=species:S:1:pos:R:3 -405683.3370407189=T pbc="F F F"
C        1.98181041      -1.27672665      -0.44552885
C        0.54012841       0.90510135      -1.69175385
C        2.34574541      -0.87376965      -1.65400885
C        1.63931541       0.20992435      -2.27854385
C       -2.90004059       1.66606535       0.81772415
C        0.91630041      -0.53490165       0.23755915
C        0.31323341       0.58263435      -0.39484085
O        1.23310841      -1.22710065       2.54607015
O       -2.23506659       0.82494635      -1.28588285
O       -0.73356859      -1.61070865       1.44411215
C        0.53398141      -1.01662965       1.58399615
C       -1.91715859       1.18436135      -0.12936085
O       -0.67215459       1.22250335       0.35881115
H       -1.16139059      -1.82634665       2.34577915
H        2.54149641      -1.85937065       0.19738315
H        0.06952741       1.79368535      -2.05858285
H        3.14788541      -1.50550765      -2.12907285
H        2.07133341       0.50996735      -3.21948585
H       -3.92306359       1.28865935       0.52703115
H       -2.69215959       1.33201735       1.83647915
H       -2.96001759       2.73659435       0.97530215
