21
Properties=species:S:1:pos:R:3 -405689.2294907568=T pbc="F F F"
C        1.50413450      -1.66098837      -0.89588693
C        1.07871350       1.07567563      -1.35310893
C        2.25709050      -0.99447237      -1.78423293
C        2.03875650       0.35057663      -2.03135193
C       -2.75374050       2.26964063       1.08429907
C        0.44773050      -0.97243137      -0.19203093
C        0.19449950       0.36167563      -0.46268193
O       -1.13003650      -1.41809737       1.54332707
O       -0.39275450       2.92342163       0.79418507
O        0.23749050      -3.12854137       0.90851707
C       -0.26642150      -1.81445137       0.82304707
C       -1.29830950       2.15068263       0.64656407
O       -1.05176350       0.93345963       0.01104707
H       -0.25138450      -3.54508437       1.64910307
H        1.91455250      -2.67900137      -0.68516493
H        0.96293850       2.12021563      -1.45684193
H        2.85993750      -1.71416237      -2.42544893
H        2.51817350       0.78671863      -2.82007593
H       -2.62449750       2.22161863       2.19430307
H       -3.10626550       3.25876463       0.67297807
H       -3.31361750       1.37835163       0.77549007
