21
Properties=species:S:1:pos:R:3 -405683.72602787253=T pbc="F F F"
C        1.71485791      -1.28099920      -0.49643567
C        0.67106591       0.91931380      -1.81946967
C        2.46265491      -0.77193120      -1.60574667
C        1.90901291       0.27997980      -2.23752267
C       -2.43147209       2.40108980       1.34243033
C        0.48111591      -0.79283020      -0.10391267
C       -0.07711909       0.43567880      -0.76404167
O       -1.51504609      -1.58180320       1.01046733
O       -0.05126609       1.81224780       1.30817933
O        0.46022891      -2.65489220       1.22699233
C       -0.34334609      -1.62861420       0.81052633
C       -1.18151109       1.80486180       0.85075633
O       -1.27956509       1.19736280      -0.42951367
H       -0.20203109      -3.23861820       1.70131033
H        2.11674691      -2.23814620       0.00561933
H        0.11033691       1.62058980      -2.55943767
H        3.36140091      -1.32046820      -1.97487467
H        2.41347191       0.56980480      -3.16283667
H       -1.93180209       3.23551980       1.86994233
H       -3.13413309       2.81496880       0.59493933
H       -3.03649209       1.75980880       1.97629233
