21
Properties=species:S:1:pos:R:3 -405663.76751059026=T pbc="F F F"
C        1.63733231      -1.53121827      -0.75980626
C        0.90015831       1.07982473      -1.32278326
C        2.61230531      -0.70999627      -1.36888526
C        2.07128631       0.51554873      -1.70416026
C       -2.67658569       2.30943873       1.13012674
C        0.28232031      -1.02572927      -0.47162326
C        0.06171331       0.33591573      -0.60208226
O       -0.62084069      -1.37817027       1.77963474
O       -0.28489769       2.76905973       0.60190474
O       -0.44757469      -3.24123627       0.47646374
C       -0.30820469      -1.83704427       0.65535674
C       -1.22833869       2.01624873       0.54363874
O       -1.10987169       0.75914573       0.05914174
H       -0.79567769      -3.77661927       1.26327074
H        1.99754231      -2.39581727      -0.16661626
H        0.70986931       2.10411873      -1.51499826
H        3.69784031      -0.81641027      -1.38517326
H        2.78237531       1.16773173      -2.31960326
H       -2.69342169       3.23090573       1.85122774
H       -3.61271869       2.54929573       0.50353274
H       -2.90481269       1.52650973       1.91038374
