21
Properties=species:S:1:pos:R:3 -405684.0458904243=T pbc="F F F"
C        2.10221864      -1.03293922      -0.20205627
C        0.66936264       0.93477578      -1.43230827
C        2.66067264      -0.31456422      -1.33715427
C        1.96464364       0.69925378      -1.93112827
C       -3.13589436       1.85418078       0.48287973
C        0.86263064      -0.71608322       0.28022973
C        0.20043364       0.35586878      -0.28383327
O       -0.44978736      -2.39794522       1.57188273
O       -2.22016436       1.09759778      -1.67897527
O        1.01678064      -0.88735222       2.52069773
C        0.35439464      -1.47444222       1.44733973
C       -2.07447736       1.22841678      -0.49177127
O       -0.99337936       0.71927378       0.25979173
H        0.67273764      -1.40955422       3.23926773
H        2.64542664      -1.87955022       0.08083573
H        0.01252764       1.50518578      -2.11836727
H        3.55510864      -0.68392022      -1.79144527
H        2.32106264       1.25411278      -2.74831127
H       -3.67456336       2.40099978      -0.23019927
H       -3.81017336       1.31803778       1.21047473
H       -2.63147936       2.52903678       1.21952573
