21
Properties=species:S:1:pos:R:3 -405689.1602722339=T pbc="F F F"
C        1.96227456      -1.17700238      -0.54832297
C        0.60024456       1.07369762      -1.53412697
C        2.28517256      -0.54831538      -1.78001897
C        1.61954056       0.58952362      -2.27516597
C       -2.76493744       2.23273662       0.24937703
C        0.87244156      -0.68397638       0.22841203
C        0.27540656       0.42928462      -0.28361697
O        1.49886656      -1.58232238       2.21138703
O       -2.37791444       0.05065562      -1.07728297
O       -0.70218744      -1.13124838       2.09696203
C        0.56682856      -1.18359838       1.58668803
C       -2.06253644       0.98874562      -0.25921897
O       -0.81077244       0.99470562       0.44411003
H       -0.64756544      -1.45349838       2.98719003
H        2.47310256      -2.02608438      -0.18940997
H       -0.01465344       1.95219762      -1.72004097
H        3.12759356      -0.90519238      -2.33931597
H        1.87674956       0.85692962      -3.31947797
H       -3.48552144       2.62949462      -0.49751397
H       -3.33162544       1.96980862       1.22747103
H       -1.97586444       2.95924962       0.48523303
