21
Properties=species:S:1:pos:R:3 -405685.55933191825=T pbc="F F F"
C        1.53510846      -1.34904692      -0.68209013
C        0.98760446       1.09084008      -1.75217213
C        2.30981446      -0.98570692      -1.79344513
C        2.00481446       0.27191308      -2.33882113
C       -2.56928954       1.76166008       1.15735387
C        0.36064046      -0.69585492      -0.11041613
C        0.08794546       0.56105908      -0.82332213
O       -1.38927054      -1.18564392       1.54286887
O       -0.22757454       1.88434708       1.42519587
O        0.38603946      -2.65396592       1.20808087
C       -0.32412954      -1.51088592       0.96488487
C       -1.20922054       1.77503808       0.74269187
O       -1.10812954       1.23280108      -0.56471013
H       -0.22820854      -3.27844892       1.69803287
H        1.80304946      -2.32017792      -0.25702513
H        0.64549646       1.93297008      -2.29476413
H        3.05588346      -1.57668392      -2.30784413
H        2.79253446       0.69155608      -2.97766113
H       -2.81306154       2.50583808       1.91598587
H       -3.40554254       1.80876708       0.45220387
H       -2.63241954       0.75960708       1.64712287
