21
Properties=species:S:1:pos:R:3 -405690.7844007913=T pbc="F F F"
C        2.01431990      -1.19712314      -0.20487344
C        0.99085990       1.32042386      -1.19063744
C        2.76750690      -0.45252614      -1.05223644
C        2.31017590       0.85985686      -1.52812944
C       -3.03044810       1.95406586       0.29009556
C        0.74656090      -0.68592914       0.29681156
C        0.28197890       0.50072186      -0.22707344
O       -0.76656810      -1.11988614       2.20502156
O       -2.04644210       0.98115486      -1.75675744
O        0.51876590      -2.77646514       1.42432356
C        0.07104790      -1.47848414       1.41668456
C       -1.94094810       1.35092486      -0.56014944
O       -0.85029110       1.03063786       0.26874856
H       -0.03899010      -3.30473014       2.10752956
H        2.44452390      -2.10924014       0.13598256
H        0.45274390       2.32738586      -1.41843844
H        3.84798690      -0.70958014      -1.41375444
H        2.99405890       1.44966386      -2.11460144
H       -2.66847110       2.76773486       0.97072756
H       -3.71658710       2.51936386      -0.28612844
H       -3.54950610       1.10790686       0.89111156
