21
Properties=species:S:1:pos:R:3 -405689.3301678174=T pbc="F F F"
C        2.08681972      -1.08303090      -0.38731938
C        0.61206672       0.92829910      -1.60088738
C        2.56455272      -0.54435190      -1.60961538
C        1.76123472       0.39185610      -2.24518438
C       -3.03099628       2.12243510       0.47839362
C        0.94564472      -0.53081690       0.28701962
C        0.21811472       0.53014210      -0.38033738
O        1.24170772      -2.14082990       1.99550162
O       -2.27904828       0.20073010      -0.99301438
O       -0.64850728      -0.89383190       2.03756662
C        0.57012872      -1.25249290       1.51056962
C       -2.11734328       1.06539410      -0.17650038
O       -0.84632528       1.32333010       0.23636762
H       -0.69738428      -1.60287790       2.70163262
H        2.42314972      -2.12135890      -0.04568538
H       -0.08815828       1.40963510      -2.28228038
H        3.45314572      -0.93041890      -2.08671238
H        2.04873272       0.58207510      -3.19477938
H       -2.55445128       3.02879210       0.76734562
H       -3.90258728       2.35771110      -0.19701838
H       -3.48132228       1.87321010       1.44042262
