21
Properties=species:S:1:pos:R:3 -405683.8836214839=T pbc="F F F"
C        2.08912048      -1.00359871      -0.18343337
C        1.05616348       1.33958029      -1.50985537
C        2.89240748      -0.33333871      -1.17661537
C        2.33233948       0.82070829      -1.83078037
C       -2.96591052       1.61109929       0.45336063
C        0.86474448      -0.53776771       0.17062963
C        0.36586048       0.68237829      -0.56669937
O       -0.77827752      -0.46446571       1.96902863
O       -2.42229152      -0.42344871      -0.77776637
O        0.55746348      -2.24985671       1.74849563
C        0.11380448      -1.00824271       1.32590263
C       -2.11927652       0.62111329      -0.22298537
O       -0.84104352       1.28196029      -0.15139037
H        0.26751748      -2.63493371       2.56020263
H        2.36647548      -1.96363571       0.11266263
H        0.61766748       2.14688129      -2.06330337
H        3.71048348      -0.89462871      -1.67159637
H        2.81897748       1.17326129      -2.76200337
H       -4.00206352       1.28945629       0.51718363
H       -2.75272952       1.73423529       1.46594163
H       -2.85007952       2.50347529      -0.25665837
