21
Properties=species:S:1:pos:R:3 -405686.99860002747=T pbc="F F F"
C        2.04339235      -1.06980441      -0.26778700
C        1.04999835       1.26765159      -1.50655200
C        2.73142435      -0.42616041      -1.32820800
C        2.21167335       0.70614959      -1.98002800
C       -2.79238365       1.48655359       0.83943000
C        0.79220235      -0.53944141       0.17436200
C        0.40962735       0.69364559      -0.41973700
O        0.57345835      -2.29720441       1.55618200
O       -2.30165065      -0.11510041      -0.97358500
O       -0.78939065      -0.38883041       1.87766300
C        0.19162935      -1.16963041       1.32250000
C       -2.10328965       0.68571259      -0.12571500
O       -0.84183965       1.29516759       0.02628100
H       -1.22911265      -0.93256541       2.54848300
H        2.36149035      -1.96952241       0.22773300
H        0.63697935       2.15820159      -1.99405500
H        3.66180735      -0.85849141      -1.63487700
H        2.75629035       1.04102159      -2.89022400
H       -2.81810365       2.55391759       0.67389200
H       -3.74908365       1.07231259       0.96909200
H       -2.29261765       1.37211459       1.83087100
