21
Properties=species:S:1:pos:R:3 -405687.31483282236=T pbc="F F F"
C        2.17044092      -1.03508316      -0.09775570
C        0.87064592       1.02664484      -1.55095070
C        2.74866992      -0.46071516      -1.30717970
C        2.09945092       0.43853084      -2.09642470
C       -3.09773908       1.50251584       0.66922830
C        0.93084492      -0.55637616       0.26768130
C        0.30455892       0.51969984      -0.42539870
O       -1.00506108      -1.40532816       1.30062830
O       -2.22609308       0.28081084      -1.29063770
O        0.88422892      -1.31456416       2.43866130
C        0.13804292      -1.04326616       1.35063930
C       -2.08832708       1.01023884      -0.33718270
O       -0.72754708       1.15833784       0.20108630
H        0.37327992      -1.75166216       3.10300430
H        2.73683692      -1.60318616       0.58023830
H        0.54543592       1.84550184      -2.10664470
H        3.78014392      -0.71723516      -1.52626070
H        2.66651892       1.05139584      -2.82508570
H       -3.98721808       1.76410484       0.14456830
H       -3.04400308       0.67022284       1.36351730
H       -2.81612508       2.37155784       1.21286730
