21
Properties=species:S:1:pos:R:3 -405688.10573123314=T pbc="F F F"
C        1.85746134      -1.32164043      -0.54635537
C        1.15857034       1.29088957      -0.72084937
C        2.79224434      -0.39542343      -1.06875237
C        2.44743634       0.91327857      -1.02165437
C       -2.93448566       2.08053957       0.35771263
C        0.63839434      -0.92166343       0.18969363
C        0.25218134       0.36442357      -0.11820337
O       -1.38275366      -1.81278843       1.15328963
O       -1.56523966       1.87718657      -1.54417437
O        0.59809234      -2.71938943       1.68039563
C       -0.16265766      -1.85641143       0.99317163
C       -1.80696266       1.64591157      -0.39222137
O       -0.86041266       1.03917957       0.42390963
H        0.04409234      -3.22571943       2.32544963
H        2.22240634      -2.36921143      -0.40066837
H        0.91508134       2.31969757      -0.67490837
H        3.73717834      -0.86416643      -1.33820237
H        3.20943234       1.69143957      -1.15516137
H       -3.72608766       2.58959657      -0.30138737
H       -3.50059566       1.36443057       0.93955663
H       -2.46243466       2.70688657       1.12474163
