21
Properties=species:S:1:pos:R:3 -405675.5423129051=T pbc="F F F"
C        2.11564730      -1.05227984      -0.26146652
C        0.90923430       1.16450216      -1.48001352
C        2.75703230      -0.40888284      -1.30307352
C        2.08372930       0.64095916      -1.94974752
C       -3.24275770       1.18141916       0.50903148
C        1.00471330      -0.56438084       0.25544448
C        0.40633330       0.61672216      -0.27509152
O       -0.06687970      -2.52121884       1.34414648
O       -2.18051870       0.73525816      -1.47501552
O       -0.06109570      -0.42637984       2.37412748
C        0.30190130      -1.36516584       1.47456848
C       -1.99051470       1.04272616      -0.30198352
O       -0.80239070       1.06804216       0.35731148
H       -0.72066370      -0.75047584       2.94957248
H        2.52609130      -1.86994084       0.29929048
H        0.29973330       1.76864216      -2.07723152
H        3.50657730      -0.89420084      -1.94420852
H        2.58898230       1.14291216      -2.83305252
H       -3.77460270       0.21220916       0.32169248
H       -3.15746370       1.45000616       1.56858648
H       -3.63562070       2.15124716       0.11992148
