21
Properties=species:S:1:pos:R:3 -405690.56186593353=T pbc="F F F"
C        2.01073291      -1.10949347      -0.33885127
C        0.88842891       1.23117153      -1.62989427
C        2.57765291      -0.59524647      -1.57730427
C        2.01696191       0.57518653      -2.20915927
C       -3.12352509       1.29178153       0.74773073
C        0.82278091      -0.46473447       0.12820073
C        0.33145391       0.66226353      -0.50005927
O        0.22239591      -2.20894547       1.63981473
O       -1.94741109      -0.32203447      -0.64784827
O       -0.24249109      -0.05385647       2.19725673
C        0.23454991      -1.06766647       1.36265973
C       -1.88275009       0.65290053       0.01485073
O       -0.81346709       1.46684453      -0.12626827
H       -0.68127709      -0.51263747       2.93434873
H        2.34471891      -1.93470647       0.31721873
H        0.35482991       2.08496753      -2.00452527
H        3.43166791      -1.22265347      -1.96848927
H        2.56606191       0.98904853      -3.06219627
H       -4.02933209       0.78387953       0.51472773
H       -2.91911309       1.11609153       1.85082873
H       -3.08576709       2.43498453       0.45583173
