21
Properties=species:S:1:pos:R:3 -405695.0959351593=T pbc="F F F"
C        1.93383765      -1.30701467      -0.28435478
C        0.77979765       0.87558533      -1.43088078
C        2.66955865      -0.57569067      -1.24553678
C        2.07266665       0.50815433      -1.82796278
C       -2.88785635       2.14962233       0.75408922
C        0.68738265      -0.89445867       0.13158022
C        0.10096165       0.30705333      -0.41048878
O        0.54400565      -2.64522067       1.67959622
O       -0.57976835       2.83631233       0.30288522
O       -1.41313835      -1.96526467       0.61842722
C       -0.04360135      -1.91147767       0.90920222
C       -1.45919035       1.99709733       0.25375522
O       -1.26267535       0.67915333      -0.12357978
H       -1.88274335      -2.49309067       1.27554222
H        2.32034665      -2.18437367       0.28107322
H        0.41479565       1.83686833      -1.83628078
H        3.67038665      -0.94668967      -1.56392578
H        2.41347065       1.16343133      -2.60154278
H       -3.56108135       1.79462733       0.05128122
H       -3.00261335       1.33468233       1.54162522
H       -3.22151835       3.19389133       1.04884022
