21
Properties=species:S:1:pos:R:3 -405691.11782342667=T pbc="F F F"
C        1.77080115      -1.29759739      -0.60092058
C        1.38949315       1.45832361      -0.51747558
C        2.87511415      -0.42085039      -0.84689558
C        2.62924815       1.00342461      -0.91137158
C       -2.75877285       2.39587561       0.47539942
C        0.51425315      -0.84836839       0.02750442
C        0.42575215       0.57553761       0.02565942
O       -1.62966485      -1.83221639       1.00083742
O       -1.64485085       1.25337861      -1.39257058
O        0.34779315      -2.87126039       1.12277642
C       -0.46038585      -1.83407239       0.69748142
C       -1.68111285       1.59737861      -0.20332358
O       -0.64170985       1.16188961       0.66834242
H       -0.23116085      -3.40835639       1.68319642
H        2.02091715      -2.33293839      -0.78961058
H        0.94117515       2.45112761      -0.50018058
H        3.74982215      -0.96714839      -1.15902158
H        3.39826915       1.72692961      -1.21153558
H       -3.27539185       3.04201161      -0.22978658
H       -3.52043185       1.62404561       0.62968742
H       -2.46395685       2.86904961       1.44255642
