21
Properties=species:S:1:pos:R:3 -405682.45860785345=T pbc="F F F"
C        2.16004306      -0.88410254      -0.20270218
C        1.09649606       1.17114646      -1.52702418
C        2.86492106      -0.41711054      -1.31426818
C        2.30966206       0.61998046      -2.02565118
C       -3.12984594       1.49931746       0.34048582
C        0.95291806      -0.34630354       0.24456282
C        0.42644906       0.74134346      -0.44459518
O       -0.47765094      -0.15083554       2.18159382
O       -2.19511194      -0.71870254      -0.48524918
O        0.05712206      -2.14558654       1.52681182
C        0.17218006      -0.82014254       1.43732682
C       -2.04863994       0.48160046      -0.20244718
O       -0.89796194       1.29040446      -0.28439818
H       -0.37317394      -2.17449454       2.37885482
H        2.12499206      -1.92740654       0.16902882
H        0.62499106       2.01157546      -2.01659118
H        3.72281506      -1.00486654      -1.71720818
H        2.87000006       1.10995646      -2.85610018
H       -4.05500894       1.36576846      -0.31492418
H       -3.49795794       1.14705546       1.33880882
H       -2.85582294       2.48682646       0.36545282
