21
Properties=species:S:1:pos:R:3 -405673.70979834156=T pbc="F F F"
C        1.43466466      -1.64074206      -1.07902683
C        1.10941466       1.02990894      -1.52431183
C        2.03753766      -1.04032406      -2.22185683
C        2.03549466       0.31508094      -2.33366283
C       -2.70123734       2.04957194       0.95501917
C        0.65868766      -0.91514406      -0.23849683
C        0.29196066       0.39176394      -0.57162083
O       -1.44298034      -1.64100806       0.52818917
O       -0.37599034       1.85224394       1.86618317
O        0.21378266      -1.85075706       1.96305217
C       -0.27328434      -1.51449306       0.69552317
C       -1.13638534       1.72984794       1.02698017
O       -0.87384534       1.15797694      -0.19612483
H       -0.64841834      -2.03119406       2.27858217
H        1.67295766      -2.66828506      -0.79478183
H        1.02014066       2.10149994      -1.53081183
H        2.70239966      -1.62966606      -2.78256483
H        2.56464666       0.78253194      -3.20596683
H       -2.99058934       2.55603894       1.85671717
H       -2.92073234       2.57633694       0.05888117
H       -3.21650234       1.12732594       1.08152917
