21
Properties=species:S:1:pos:R:3 -405677.3174949705=T pbc="F F F"
C        1.92351757      -1.40464611      -0.22037220
C        1.32707257       1.22940989      -0.98969020
C        2.86170257      -0.65870011      -0.90726820
C        2.54466257       0.65495189      -1.16597620
C       -2.93264943       1.75623089       0.77711380
C        0.78462857      -0.78021011       0.17684380
C        0.40198157       0.46906589      -0.23968620
O       -1.48167143      -1.72521811       0.64527480
O       -1.91096943       1.77469289      -1.40360420
O        0.43313357      -2.19371111       1.84123380
C       -0.27330343      -1.55079111       0.80845980
C       -1.81192843       1.55237089      -0.23554720
O       -0.66907143       1.00601989       0.36491480
H       -0.26851043      -2.59001211       2.49044280
H        1.96837457      -2.45365311       0.10453780
H        1.25551657       2.20907689      -1.44418520
H        3.77472557      -1.10686311      -1.32391220
H        3.10718857       1.23509589      -1.79576020
H       -3.63454143       2.41355889       0.19771380
H       -3.36238543       0.78998689       0.92421480
H       -2.71078443       2.47305889       1.63649980
