21
Properties=species:S:1:pos:R:3 -405694.0539762738=T pbc="F F F"
C        1.77384159      -1.27953605      -0.47276248
C        1.43628759       1.44472095      -0.18713448
C        2.75752959      -0.38441705      -1.04705348
C        2.50715659       1.00750595      -0.91502348
C       -2.87766141       2.09285795       0.34718852
C        0.56081259      -0.86300005       0.08568652
C        0.44213259       0.56753895       0.18213752
O       -1.43565941      -1.52899005       1.15828952
O       -1.37301341       1.55383095      -1.42564748
O        0.08851559      -3.15637505       0.74934552
C       -0.37188741      -1.84911705       0.69909952
C       -1.62486541       1.56615195      -0.26451148
O       -0.73533241       1.14213495       0.75029352
H       -0.64181641      -3.52284305       1.35710452
H        1.81880659      -2.33687105      -0.62216748
H        1.37274559       2.53647795      -0.07552748
H        3.76713959      -0.70513805      -1.31531548
H        3.17324659       1.65171695      -1.51472348
H       -3.70812341       1.85937995      -0.46804748
H       -3.10746141       1.53324895       1.32951752
H       -2.64466541       3.13931695       0.47394452
