21
Properties=species:S:1:pos:R:3 -405672.91562122206=T pbc="F F F"
C        1.83863842      -1.08232745      -0.42535383
C        0.65596442       1.11676155      -1.52477683
C        2.57000142      -0.46715145      -1.47958283
C        1.98614342       0.78746555      -1.87655683
C       -3.10616958       2.12014655       0.12116317
C        0.83560842      -0.64710445       0.34162017
C        0.19312442       0.42041955      -0.33309583
O        1.20982142      -2.31936945       1.92570017
O       -2.24349658       0.28970155      -1.39025383
O       -0.51426558      -0.92561945       2.33614317
C        0.57801442      -1.33600945       1.60736417
C       -2.08274158       1.03531755      -0.44458883
O       -0.91208958       1.10448255       0.33101817
H       -0.63030658      -1.31554445       3.18613517
H        2.22221542      -2.00984145      -0.07886483
H        0.13663542       1.89553455      -2.09576183
H        3.49032542      -0.76125545      -1.84524783
H        2.48280742       1.23722055      -2.74667483
H       -3.02086658       2.99622455      -0.49655283
H       -4.20151858       1.84426355      -0.05382083
H       -2.73665758       2.29825155       1.09479817
