21
Properties=species:S:1:pos:R:3 -405686.86591486086=T pbc="F F F"
C        2.00161026      -1.07075904      -0.42801828
C        1.21430126       1.41969396      -1.31961428
C        2.63462326      -0.56414304      -1.52691328
C        2.28339226       0.74483796      -2.02144228
C       -3.12091374       1.69118096       0.30830472
C        0.91480926      -0.42396504       0.15844872
C        0.40360526       0.77163896      -0.41193728
O        0.43121326      -2.34148804       1.48337972
O       -2.17667774      -0.48619904      -0.35840528
O       -0.66784574      -0.49125804       2.13958372
C        0.18178126      -1.20947804       1.25410172
C       -2.02964874       0.72640696      -0.07568528
O       -0.83529974       1.41238496      -0.05994128
H       -0.84540274      -0.95898304       3.01284972
H        2.28373926      -2.04810304       0.05646772
H        0.81379526       2.42020596      -1.65409928
H        3.27651226      -1.10746104      -2.22497028
H        2.78936726       1.30655896      -2.75777428
H       -3.69949174       1.38961496       1.07231972
H       -2.63126874       2.61230496       0.52100072
H       -3.81443774       1.81369296      -0.51085528
