21
Properties=species:S:1:pos:R:3 -405683.60551474855=T pbc="F F F"
C        1.96005991      -1.06397794      -0.19798051
C        1.17293891       1.33141106      -1.53167651
C        2.60056091      -0.60882994      -1.36103951
C        2.18769091       0.58117606      -2.04815251
C       -3.07193709       1.41791906       0.29135249
C        0.81986891      -0.31764994       0.22428149
C        0.40647391       0.86263106      -0.43134151
O       -0.80545409      -0.48700494       2.21805449
O       -2.20496809      -0.43004694      -0.79521351
O        0.64178891      -2.14842194       1.81903649
C        0.09143291      -0.97379394       1.48821149
C       -1.93086309       0.63568206      -0.28199351
O       -0.78812009       1.47002906      -0.20303551
H        0.19855891      -2.20520094       2.67250549
H        2.32905391      -1.75069194       0.56973749
H        0.99386991       2.37471906      -1.97283951
H        3.43420991      -1.19273294      -1.70193551
H        2.76743291       0.90380106      -2.95944451
H       -3.69114909       0.78880106       0.91947449
H       -2.62311709       2.38838406       0.64057149
H       -3.74891209       1.81270006      -0.57518751
