21
Properties=species:S:1:pos:R:3 -405687.7663939707=T pbc="F F F"
C        1.59394068      -1.47047499      -0.75299503
C        0.72469668       0.92117501      -1.73587903
C        2.43776568      -0.76314799      -1.59892103
C        1.96738668       0.48412101      -2.15480403
C       -2.37108632       2.69816001       0.89132997
C        0.29599068      -0.97270299      -0.37829303
C       -0.08956232       0.29031001      -0.77387403
O       -1.44160132      -1.40368299       1.26573497
O       -0.18445532       1.67887101       1.61913697
O        0.54664268      -2.52318599       1.31776197
C       -0.33655532      -1.56303699       0.83733397
C       -1.06712432       1.77648201       0.77233997
O       -1.28104632       0.91379101      -0.36537303
H        0.10332368      -3.18115699       1.89918597
H        1.54279768      -2.51665199      -0.45088503
H        0.43828768       1.89452001      -2.10614903
H        3.39166768      -1.22983199      -1.91414103
H        2.55136868       0.98175501      -2.87607403
H       -2.27122332       3.25071001       1.79420097
H       -2.58891932       3.28617801      -0.02958603
H       -3.27651232       2.00921201       1.05252297
