21
Properties=species:S:1:pos:R:3 -405687.44350328646=T pbc="F F F"
C        1.86765116      -1.17079191      -0.45858548
C        0.86908316       1.17651509      -1.45273048
C        2.14496616      -0.76073191      -1.83289348
C        1.74955816       0.47696809      -2.30243748
C       -3.03625984       1.90333509       0.38949952
C        0.92954116      -0.45510091       0.27454352
C        0.26071316       0.65798609      -0.32328648
O        1.44517116      -1.87177891       2.14390352
O       -2.29110084       0.14245509      -1.08472148
O       -0.62885184      -1.12103991       2.20283052
C        0.61034316      -1.10809091       1.61627652
C       -2.10893284       0.99066709      -0.33146448
O       -0.83333584       1.31599909       0.24460152
H       -0.49732884      -1.87485891       2.76327052
H        2.20623016      -2.06827591      -0.04623348
H        0.45777216       2.14091209      -1.77124148
H        2.74798616      -1.37949091      -2.48881448
H        2.30674316       0.91971209      -3.14434048
H       -4.00029584       1.81145109      -0.08870848
H       -3.09843984       1.54853209       1.35935852
H       -2.62490884       2.88382209       0.40522052
