21
Properties=species:S:1:pos:R:3 -405686.3735507576=T pbc="F F F"
C        2.06606417      -1.17922352      -0.42159176
C        0.80895517       1.18945548      -1.44617776
C        2.54617817      -0.59119652      -1.58180176
C        1.89191517       0.52526048      -2.17187676
C       -2.94430883       1.91003348       0.55981424
C        0.87172817      -0.67318052       0.11512024
C        0.26160517       0.49959148      -0.44377476
O        1.11250317      -1.93275452       2.19101724
O       -2.39676983       0.36924548      -1.22325376
O       -0.76112383      -0.90638852       2.02256324
C        0.48082217      -1.17354552       1.52109724
C       -2.06474583       0.94719848      -0.21495776
O       -0.78803483       1.05346148       0.19358024
H       -0.80687883      -1.22214752       2.92788624
H        2.63629717      -1.97219552      -0.00717076
H        0.21978317       2.05012548      -1.82056376
H        3.42276717      -0.89251452      -2.25995876
H        2.42437817       1.05416748      -3.06005776
H       -4.01754083       1.48138948       0.37726324
H       -2.74206483       1.74910848       1.67765924
H       -2.82172283       2.91472248       0.26328924
