21
Properties=species:S:1:pos:R:3 -405689.873494286=T pbc="F F F"
C        1.82746326      -1.34876671      -0.39305784
C        1.46893526       1.44697629      -0.64170484
C        2.89281326      -0.53751271      -0.76650284
C        2.69183626       0.82544729      -0.95199884
C       -2.93225674       1.96650929       0.61577816
C        0.64521626      -0.78063571      -0.02321484
C        0.48515226       0.66580929      -0.13603084
O       -1.63481674      -1.55922371       0.79471916
O       -1.75553174       1.46316329      -1.31278284
O        0.29181826      -2.84657071       1.26771516
C       -0.43900474      -1.67432971       0.63303216
C       -1.74050774       1.58263429      -0.15994484
O       -0.60383374       1.12230829       0.59696216
H       -0.46361974      -3.30530371       1.60008216
H        1.96428526      -2.41765571      -0.40558584
H        1.22900126       2.44999029      -0.84299484
H        3.86249326      -0.94391471      -1.14309984
H        3.48215426       1.51353929      -1.33323584
H       -3.61572574       2.61502729       0.00821316
H       -3.34772174       0.98844029       0.90547116
H       -2.69092574       2.43609929       1.55323716
