21
Properties=species:S:1:pos:R:3 -405690.7539914868=T pbc="F F F"
C        2.04967729      -1.12349878      -0.28866642
C        0.79439729       1.05263922      -1.53823042
C        2.55362029      -0.59296678      -1.41732142
C        2.02100729       0.61684522      -1.91929342
C       -3.19892071       1.86502322      -0.07582742
C        0.88993029      -0.54615178       0.27921858
C        0.23147529       0.50513022      -0.38489442
O       -0.63302871      -0.59090378       2.13287258
O       -2.23359471      -0.19472978      -1.15619542
O        1.16858329      -1.90133978       2.17576058
C        0.39334329      -0.94908378       1.58987958
C       -2.18752271       0.79795822      -0.43203142
O       -0.91717171       1.18216722       0.20536858
H        0.54351229      -2.15863278       2.94943958
H        2.61878329      -1.92510878       0.21019758
H        0.38886529       2.05282822      -1.79090542
H        3.39252929      -1.06169978      -1.98782642
H        2.57153329       1.30903322      -2.58574542
H       -2.74431571       2.79550322       0.29959858
H       -3.56440571       2.10289822      -1.11686642
H       -3.93480471       1.40829022       0.58716158
