21
Properties=species:S:1:pos:R:3 -405681.330231539=T pbc="F F F"
C        2.11322104      -1.00683379      -0.38050397
C        0.55575404       0.76926221      -1.61065797
C        2.54953704      -0.62332479      -1.58951997
C        1.66202704       0.26204021      -2.23823297
C       -3.05139996       1.90130421       0.53762203
C        0.98154204      -0.47544279       0.34746303
C        0.33272204       0.57007221      -0.30509897
O        1.18911904      -1.66772879       2.41389503
O       -2.21368496       0.44995521      -1.21278397
O       -0.87044596      -1.34438879       1.45437803
C        0.49927404      -1.20234379       1.54227503
C       -1.93272896       1.18111921      -0.17365597
O       -0.70270596       1.26495121       0.43339503
H       -1.15616996      -1.59355679       2.35419803
H        2.76051204      -1.76396379       0.07242803
H       -0.02269496       1.61512021      -2.09993097
H        3.37648504      -1.09256379      -2.04991397
H        1.86499004       0.75695221      -3.20803997
H       -4.02358796       1.34582421       0.56347603
H       -2.53081096       2.11507621       1.50655403
H       -3.21477496       2.82274921      -0.07848897
