21
Properties=species:S:1:pos:R:3 -405678.0412022312=T pbc="F F F"
C        1.77195431      -1.49575659      -0.63644294
C        1.23776931       1.18425741      -0.98261794
C        2.67465831      -0.79899659      -1.44366494
C        2.32429031       0.49142041      -1.72798294
C       -2.64314669       2.21230741       1.28688306
C        0.68966731      -0.91580859       0.03852806
C        0.39090031       0.41847641      -0.09992094
O        0.22083731      -2.49579559       1.79743506
O       -1.59339669       2.56937641      -0.74423494
O       -1.44071169      -2.20042559       0.11030706
C       -0.19423069      -1.94383659       0.74925706
C       -1.60631369       1.97968741       0.30927606
O       -0.60872169       1.02890841       0.74648406
H       -1.88135369      -2.65279759       0.90435806
H        2.02365831      -2.43537759      -0.24944494
H        1.06317531       2.25443841      -1.20821094
H        3.45774931      -1.24768759      -2.00230294
H        2.89674931       1.03292341      -2.49012594
H       -2.94323069       1.27336241       1.81700806
H       -2.25634469       3.03494641       2.03535406
H       -3.36464769       2.68967741       0.72709106
