21
Properties=species:S:1:pos:R:3 -405675.50290375215=T pbc="F F F"
C        1.85401401      -1.12268240      -0.37883185
C        0.78542701       1.14983060      -1.58914485
C        2.50129401      -0.58732040      -1.41923385
C        1.99283901       0.65093060      -2.13726485
C       -3.21586999       1.65490860       0.23735415
C        0.86833601      -0.49458640       0.32452115
C        0.25095701       0.61033960      -0.42700285
O        0.77320001      -2.30899540       1.71600015
O       -2.16851799      -0.10515240      -0.97850385
O       -0.19694399      -0.44645640       2.51352215
C        0.55868701      -1.13488740       1.56254315
C       -2.05299499       0.88012260      -0.34104385
O       -0.88096999       1.38819060       0.07409915
H       -0.48634699      -1.10679040       3.16151515
H        2.09562201      -2.09271740       0.11006615
H        0.35155001       2.05546960      -2.09655985
H        3.16249701      -1.14988540      -2.11208885
H        2.36460401       1.04884560      -3.03266085
H       -3.19418199       1.56836460       1.25959715
H       -3.13496899       2.73762060      -0.21089085
H       -4.08898099       1.17719460      -0.22211085
