21
Properties=species:S:1:pos:R:3 -405687.68109141686=T pbc="F F F"
C        1.92319878      -1.34221797      -0.55940009
C        0.66403578       0.85227703      -1.63899309
C        2.64341978      -0.49139297      -1.46011909
C        1.91908878       0.53266903      -2.08591209
C       -2.60395522       2.20070603       1.17897591
C        0.65044078      -0.96840097      -0.05436009
C        0.12307178       0.23094203      -0.53734509
O       -0.69878222      -1.34974297       1.87409091
O       -0.21200622       2.66057303       0.59897591
O       -0.69704322      -3.02331697       0.29740791
C       -0.27613622      -1.79144597       0.84054991
C       -1.21429222       1.86681103       0.62635591
O       -1.14877122       0.65934603       0.09277891
H       -1.37622422      -3.39311797       0.95558291
H        2.31956078      -2.22515397      -0.07443809
H        0.12246778       1.72482103      -2.03075609
H        3.72814578      -0.47576597      -1.61537809
H        2.33850778       1.19028503      -2.88057609
H       -2.66994422       3.19013903       1.66969191
H       -3.38371922       2.12785603       0.39272491
H       -2.91922922       1.59723203       2.08038391
