21
Properties=species:S:1:pos:R:3 -405686.00164681533=T pbc="F F F"
C        2.21981547      -1.01438767      -0.19808317
C        0.58064847       0.83133533      -1.63919217
C        2.75320047      -0.47237567      -1.37611617
C        1.87969647       0.52512033      -2.01775517
C       -3.08169753       1.61586333       0.60711083
C        0.86042447      -0.70216867       0.25364283
C        0.13865747       0.26467833      -0.41790617
O       -0.00501953      -2.57269067       1.53337383
O       -2.10045053       1.57575433      -1.60504117
O        0.48952947      -0.59998367       2.63997883
C        0.37316747      -1.41306867       1.54670983
C       -2.08270553       1.32356533      -0.39577017
O       -1.04124053       0.62173833       0.23825283
H        0.19782647      -1.00413267       3.43609683
H        2.74867547      -1.74653867       0.31287383
H        0.07279047       1.60413733      -2.27652017
H        3.59640047      -0.63165667      -2.02951517
H        2.19307647       0.85207933      -3.03236617
H       -3.12805853       2.65637633       0.51087583
H       -4.07900053       1.19497533       0.27413083
H       -2.78554853       1.13816733       1.57162783
