21
Properties=species:S:1:pos:R:3 -405693.4607100283=T pbc="F F F"
C        2.06681387      -0.99617592      -0.17191096
C        0.80059887       0.90750908      -1.60749796
C        2.65534387      -0.51596392      -1.29043096
C        2.02470587       0.45546708      -2.06865996
C       -3.13300413       1.67747808       0.35213904
C        0.84262787      -0.48253592       0.32459804
C        0.19969387       0.50394408      -0.38369796
O       -0.89004313      -1.11107992       1.92648704
O       -2.13499713       0.46584008      -1.49766996
O        1.19740287      -1.81515792       2.32687704
C        0.21786487      -1.09563292       1.46556704
C       -2.07589113       0.99975508      -0.42655796
O       -0.86053613       1.14847908       0.18202904
H        0.73085587      -1.86208792       3.19739504
H        2.57939887      -1.75417592       0.46404504
H        0.33194487       1.85410508      -2.03174296
H        3.65828787      -0.88658192      -1.53847996
H        2.49037887       0.73763708      -3.00476796
H       -2.69353013       2.59682608       0.70088204
H       -3.99654413       1.94647108      -0.19698596
H       -3.28727213       0.87822808       1.10862304
