21
Properties=species:S:1:pos:R:3 -405680.95933632687=T pbc="F F F"
C        1.62386488      -1.47147378      -0.84778740
C        0.81844488       0.92985522      -1.92275540
C        2.33632288      -0.95849078      -1.96900840
C        1.95350388       0.25455122      -2.44344840
C       -2.46365812       2.61371622       0.96893260
C        0.47136288      -0.84526278      -0.28403040
C        0.26370888       0.47773822      -0.70191340
O       -1.49377412      -1.40270578       0.86870060
O       -0.71043412       1.15588122       1.97202760
O        0.54763288      -2.11928378       1.65720960
C       -0.29697412      -1.45563578       0.83409160
C       -1.31078412       1.56015922       1.00007460
O       -0.92483612       1.20328622      -0.31264740
H        0.22908888      -2.07024578       2.62389160
H        2.14338388      -2.31942478      -0.36663040
H        0.46231788       1.80872222      -2.44801740
H        3.42660588      -1.25879478      -2.07293740
H        2.62399688       0.65384622      -3.16517540
H       -2.52635312       3.14365022      -0.07408840
H       -3.41412412       2.02910922       1.17941960
H       -2.40915512       3.30905422       1.79013360
