21
Properties=species:S:1:pos:R:3 -405678.7359024519=T pbc="F F F"
C        1.55764688      -1.54642148      -0.72528289
C        0.91451888       1.03311652      -1.27321389
C        2.43397688      -0.75590448      -1.53101689
C        2.08483988       0.60073552      -1.85545489
C       -2.23187212       1.92898052       1.52656711
C        0.46578288      -0.98756048      -0.05425989
C        0.12878888       0.28444452      -0.45347089
O       -1.25561312      -1.50603348       1.65736911
O       -0.47672012       3.07196252       0.36119011
O       -0.11210212      -3.21252948       0.50332511
C       -0.31798012      -1.86379948       0.86971411
C       -1.20708112       2.14084252       0.47675311
O       -1.03501912       0.91645652      -0.23177989
H       -0.90784312      -3.58151748       1.07299411
H        1.87758188      -2.53941848      -0.49961389
H        0.50219088       2.06655152      -1.48442689
H        3.29539988      -1.15678548      -2.10477789
H        2.61678988       1.18191052      -2.61863889
H       -3.04294812       1.22551652       1.20215611
H       -1.69732712       1.45391352       2.29700411
H       -2.53154512       3.00228352       1.74431711
