21
Properties=species:S:1:pos:R:3 -405697.9122371079=T pbc="F F F"
C        1.91613364      -1.22706236      -0.38389038
C        0.93173264       0.96030664      -1.78996938
C        2.70512864      -0.63533736      -1.44016738
C        2.17341764       0.36828864      -2.15036638
C       -2.85209636       1.72830664       0.70351362
C        0.63775064      -0.75635936      -0.02182638
C        0.18163064       0.35553564      -0.87206338
O        0.16731864      -2.11500336       2.10813862
O       -0.52810936       1.92822464       1.32611362
O       -1.48252236      -1.49616236       0.62305262
C       -0.17998436      -1.51282736       1.06122762
C       -1.37916036       1.55912164       0.58605062
O       -1.10733136       0.87544264      -0.62183038
H       -1.99014636      -2.13884036       1.24026462
H        2.29003564      -2.02914636       0.25614962
H        0.51721164       1.82918964      -2.27087138
H        3.71928564      -0.99191136      -1.65033138
H        2.77716364       0.80690164      -2.98550738
H       -3.09763136       2.43547364       1.44564262
H       -3.30521936       2.10125364      -0.23426338
H       -3.31124236       0.80125464       0.96400662
