21
Properties=species:S:1:pos:R:3 -405686.2501798251=T pbc="F F F"
C        1.57410371      -1.39885311      -0.71983732
C        0.89046571       0.92000589      -1.59275932
C        2.41497071      -0.83068911      -1.66966232
C        1.99873771       0.37480889      -2.18882232
C       -2.42375229       2.08217189       1.32381468
C        0.38543471      -0.91915111      -0.24472132
C        0.06120771       0.36324889      -0.68485132
O       -1.62156729      -1.44186611       0.97204268
O       -0.06850829       2.26361289       1.20181968
O        0.32990871      -2.52211911       1.43211968
C       -0.41336629      -1.58693911       0.75808868
C       -1.11533929       1.85737189       0.75492968
O       -1.15351529       0.90201389      -0.37276432
H       -0.35619129      -3.09362311       1.87424268
H        1.77676171      -2.43625911      -0.43318632
H        0.58749571       1.98087889      -1.61347732
H        3.20301271      -1.43377311      -1.93297832
H        2.67127371       1.02411389      -2.82132532
H       -2.52575129       3.10000689       1.56152268
H       -3.17458929       1.80701289       0.60832168
H       -2.44338329       1.45878189       2.21195368
