21
Properties=species:S:1:pos:R:3 -405683.952918542=T pbc="F F F"
C        2.16440081      -1.03907670      -0.27408642
C        0.70136681       0.88256530      -1.75180942
C        2.61392081      -0.66894370      -1.56669142
C        1.75086081       0.23067830      -2.33579042
C       -2.97759719       1.76814330       0.84416558
C        1.01797781      -0.47218370       0.27127858
C        0.28743281       0.52161730      -0.43360042
O        1.33456881      -1.44676670       2.47170158
O       -2.63262819       0.64886030      -1.34506342
O       -0.75758919      -1.27184570       1.72261058
C        0.58712181      -1.14964570       1.61378458
C       -2.14822419       1.08720130      -0.33659342
O       -0.82288119       0.99384930       0.22784058
H       -0.96067019      -1.30905070       2.64526858
H        2.84727481      -1.75817670       0.37705658
H        0.20531981       1.52822030      -2.51370842
H        3.47014781      -1.24122870      -1.99465642
H        2.15093581       0.43009230      -3.32641942
H       -3.36410219       0.95602930       1.40234658
H       -2.33998819       2.31838930       1.46732758
H       -3.91925419       2.33492730       0.36942858
