21
Properties=species:S:1:pos:R:3 -405683.3768534913=T pbc="F F F"
C        1.81516248      -1.38326111      -0.53982136
C        1.27488348       1.38069289      -0.42077136
C        2.77021748      -0.49241211      -0.99094136
C        2.40382148       0.88255789      -1.03356236
C       -2.86138552       2.13054289       0.44152764
C        0.58636948      -0.85187511      -0.02716736
C        0.32903248       0.43548189      -0.08438036
O       -1.38838552      -1.62896611       1.16075364
O       -1.62324552       1.63017289      -1.59852636
O        0.62878748      -2.48626011       1.55343164
C       -0.21860752      -1.74693911       0.81812864
C       -1.81978952       1.44611289      -0.41802936
O       -0.88218052       0.82680189       0.48311164
H        0.14918148      -2.79904611       2.36802964
H        1.91921148      -2.48884111      -0.31744136
H        1.13010448       2.36000889      -0.05905336
H        3.74091748      -0.82829411      -1.22613636
H        3.17072548       1.65746889      -1.30051236
H       -3.61671852       2.74555089      -0.14715836
H       -3.39369452       1.41777689       1.10967364
H       -2.23913152       2.81000889       1.04905264
