21
Properties=species:S:1:pos:R:3 -405683.7690750118=T pbc="F F F"
C        1.80312923      -1.52182781      -0.61041665
C        0.92492823       1.02748719      -1.32951965
C        2.49921423      -0.70198681      -1.47186165
C        2.10761523       0.57569619      -1.91086365
C       -2.45713177       1.94559019       1.33785435
C        0.63963623      -0.99400381      -0.00574965
C        0.13848223       0.25139319      -0.44727065
O       -0.88410377      -1.46836781       1.98557635
O       -0.37674977       2.85709419       0.32058235
O       -0.62825377      -2.81504381       0.10704335
C       -0.31346377      -1.76144881       0.88900635
C       -1.24995577       1.98211019       0.44850535
O       -1.15416777       0.70672319      -0.02822465
H       -1.28992077      -3.34671281       0.49846235
H        1.97059523      -2.59052381      -0.41333365
H        0.55296023       2.03156419      -1.48483365
H        3.48961723      -0.94519481      -1.79520865
H        2.79218723       1.23479519      -2.49917265
H       -2.57923077       2.82925519       1.98055935
H       -3.23329877       1.52491419       0.80612035
H       -2.13207477       1.12108719       1.97101435
