21
Properties=species:S:1:pos:R:3 -405690.8622537852=T pbc="F F F"
C        1.98639383      -1.10754763      -0.46147319
C        0.92244383       1.18942137      -1.61788519
C        2.39611583      -0.71406363      -1.69684319
C        1.87212583       0.43600937      -2.26913119
C       -2.98276217       1.07870837       0.79432581
C        0.90199383      -0.47487563       0.20965581
C        0.34131383       0.70870437      -0.45723519
O        0.47641083      -2.13794063       1.87725781
O       -2.33757417       0.08654037      -1.28362519
O       -0.07694917       0.02281637       2.50484581
C        0.38620983      -0.97500763       1.54840781
C       -2.05341617       0.70632937      -0.24228319
O       -0.81218217       1.23550237       0.10002681
H        0.00569283      -0.56729563       3.31532281
H        2.33141883      -2.13099463      -0.17829419
H        0.54569583       2.19180637      -1.93445119
H        3.26467583      -1.26467263      -2.12836519
H        2.31405783       0.76367237      -3.23678519
H       -3.98784117       0.56838537       0.73951981
H       -2.59226117       0.76050437       1.72518281
H       -3.12599317       2.17221237       0.85419481
