21
Properties=species:S:1:pos:R:3 -405687.71930113574=T pbc="F F F"
C        1.88724280      -1.39493282      -0.37310254
C        1.57783180       1.38382318      -0.45667254
C        2.88882080      -0.59963582      -0.95217054
C        2.78749880       0.75984118      -0.86481254
C       -3.04404820       1.76781918       0.66469646
C        0.61696880      -0.81659182       0.02189246
C        0.52664680       0.55372718      -0.03038654
O       -1.70348220      -1.58283282       0.69624346
O       -1.66660820       1.58816418      -1.39854054
O        0.19347680      -2.68114082       1.21798646
C       -0.47039920      -1.67496082       0.60365946
C       -1.78442420       1.63153318      -0.21281154
O       -0.59744220       1.29947318       0.60225746
H       -0.52393820      -2.96170282       1.86121846
H        1.90256080      -2.49014182      -0.27376454
H        1.50613280       2.40488218      -0.27837554
H        3.83019680      -1.11878782      -1.33353954
H        3.67464180       1.31506118      -1.25049954
H       -3.67799420       0.79778118       0.68248446
H       -2.66897820       2.08436918       1.67606946
H       -3.51471120       2.63458718       0.22122746
