21
Properties=species:S:1:pos:R:3 -405687.5757219477=T pbc="F F F"
C        2.07157000      -1.28649762      -0.15613405
C        1.39833700       1.54302238      -0.56953805
C        2.83399300      -0.46055762      -0.90794405
C        2.57549800       0.96201938      -0.97617805
C       -2.90427500       2.04844038       0.26295195
C        0.71570600      -0.74104562       0.21921395
C        0.46380000       0.65707638       0.10820195
O       -0.69057200      -1.33979762       2.10117395
O       -1.66505500       0.79065038      -1.62610805
O       -0.68835400      -2.72124462       0.29576995
C       -0.25120500      -1.56791262       0.97183895
C       -1.79731200       1.31867938      -0.51979105
O       -0.78476000       1.12008438       0.47088395
H       -1.33454500      -3.07784562       0.90629295
H        2.22795400      -2.37087862       0.05353695
H        1.23537500       2.62374738      -0.75732005
H        3.80186200      -0.78070962      -1.25665905
H        3.43110300       1.63362638      -1.29572705
H       -3.81163700       2.09596038      -0.35919305
H       -2.92999400       1.43094238       1.11465595
H       -2.65282100       3.12383838       0.54992495
