21
Properties=species:S:1:pos:R:3 -405685.0977290553=T pbc="F F F"
C        2.13288621      -1.03760113      -0.28813636
C        0.72681321       0.96012187      -1.45225136
C        2.61569721      -0.48867313      -1.43906736
C        1.86565721       0.39499587      -2.07743136
C       -3.22701679       1.44569787       0.56009764
C        0.84663721      -0.82392713       0.20458464
C        0.18080521       0.24957987      -0.40249536
O        1.19356121      -1.46183313       2.44848264
O       -1.93873479       1.96499587      -1.36122436
O       -0.83784979      -1.83597413       1.51709464
C        0.46093021      -1.44133413       1.48372264
C       -1.98631579       1.43498987      -0.26036136
O       -0.93829779       0.64303787       0.24706764
H       -0.98119179      -2.24480013       2.36564464
H        2.82770421      -1.69486413       0.35179364
H        0.23623421       1.84679587      -1.86069336
H        3.57175421      -0.75925313      -1.84233136
H        2.14264421       1.16582087      -2.84681836
H       -3.10078379       1.35674687       1.59843564
H       -3.86150779       2.40671587       0.56014264
H       -3.87586779       0.60849287       0.13370764
