21
Properties=species:S:1:pos:R:3 -405691.14964828995=T pbc="F F F"
C        1.99222526      -1.21301400      -0.39372834
C        0.80931326       1.01661000      -1.55701734
C        2.47228426      -0.63934000      -1.58944634
C        1.86371826       0.42255500      -2.21353934
C       -3.08940774       1.83896600       0.65825366
C        0.89084926      -0.61991200       0.26987266
C        0.41815126       0.58905900      -0.22823634
O        0.94659326      -1.21660600       2.59554766
O       -2.08660074       0.55216400      -1.31439134
O       -0.84252674      -1.68578200       1.31312166
C        0.40017526      -1.12334600       1.58005666
C       -1.96161674       1.09323100      -0.27352234
O       -0.68879374       1.13602900       0.37500966
H       -1.13221674      -2.02611000       2.19085666
H        2.40485326      -2.14791900      -0.06911434
H        0.14749126       1.74321500      -1.93175834
H        3.39045526      -1.00807400      -2.03471834
H        2.18333526       0.71131400      -3.20857834
H       -3.83884174       2.25705900       0.02016766
H       -3.40722674       0.92008100       1.23000466
H       -2.54659474       2.57004300       1.29693466
