21
Properties=species:S:1:pos:R:3 -405676.54701561405=T pbc="F F F"
C        1.75498072      -1.47447954      -0.60322329
C        1.20585972       1.17706546      -0.99292629
C        2.64339472      -0.80780254      -1.47536229
C        2.30701972       0.52418546      -1.67830529
C       -2.62328528       2.21976146       1.32071071
C        0.71134572      -0.94462054       0.02593071
C        0.41070072       0.44633346      -0.11332529
O        0.23574972      -2.49320254       1.79763471
O       -1.58167528       2.55088646      -0.78161029
O       -1.45942428      -2.19946254       0.08271871
C       -0.19271328      -1.96462954       0.76552071
C       -1.61091628       1.95499446       0.30883271
O       -0.58037228       1.04410846       0.75821471
H       -1.86947428      -2.59611554       0.84359671
H        2.06586472      -2.47289354      -0.12918929
H        1.03108872       2.26401946      -1.12594829
H        3.43814372      -1.34829354      -2.06982729
H        2.94962972       1.05169146      -2.37833529
H       -3.00601528       1.31480146       1.84302571
H       -2.31971828       3.01846446       1.95424371
H       -3.40310728       2.72480846       0.66939871
