21
Properties=species:S:1:pos:R:3 -405693.60960736044=T pbc="F F F"
C        2.02873430      -1.18879636      -0.37874760
C        0.90249630       1.26295464      -1.42720560
C        2.62941030      -0.45064636      -1.33779960
C        2.03681430       0.72868964      -1.95072760
C       -2.98337370       1.92661664       0.47459440
C        0.80784130      -0.63208536       0.10860740
C        0.31265530       0.60901564      -0.35146960
O        1.07049230      -2.04961236       1.93012140
O       -2.30645070       0.14074864      -1.01664760
O       -0.94735170      -1.07502036       1.64840440
C        0.29784930      -1.29149436       1.32222740
C       -2.02528370       0.94133664      -0.19340160
O       -0.69516270       1.20611364       0.35617340
H       -1.23277870      -1.57828536       2.43093540
H        2.59211130      -2.01793736       0.14010140
H        0.34110730       2.11577164      -1.76085160
H        3.51467930      -0.79905236      -1.79628060
H        2.42974030       1.19739864      -2.86419960
H       -3.84405470       1.54639664       1.08960440
H       -2.39570270       2.58843364       1.22931040
H       -3.43402270       2.47223864      -0.32104260
