21
Properties=species:S:1:pos:R:3 -405691.83732732316=T pbc="F F F"
C        1.93105890      -1.08375839      -0.42838835
C        0.84358890       1.11142361      -1.52783135
C        2.46784790      -0.55097139      -1.55282635
C        1.95569990       0.58854061      -2.09814635
C       -3.07697410       1.59239461       0.42683265
C        0.86605890      -0.52664639       0.23143965
C        0.27586190       0.56647561      -0.36821935
O        1.02255090      -2.03656439       2.01383565
O       -2.07909810       0.24317061      -1.23222135
O       -0.85061010      -0.77585839       2.21342665
C        0.36583990      -1.18943939       1.47077965
C       -1.94803410       0.98122361      -0.28113435
O       -0.72181310       1.17362161       0.22743965
H       -0.76025310      -1.25201139       3.04199465
H        2.45463190      -1.91084739       0.11267465
H        0.38029590       1.98837261      -1.97879235
H        3.36350490      -0.91646239      -2.05119135
H        2.42692790       1.13378761      -2.96369835
H       -2.84952910       2.67186861       0.52215665
H       -4.02513710       1.39156461      -0.11976435
H       -3.09519210       1.31124161       1.43888065
