21
Properties=species:S:1:pos:R:3 -405680.3431791173=T pbc="F F F"
C        1.84001334      -1.19341839      -0.72427508
C        0.96605134       1.33504661      -1.47732208
C        2.45676234      -0.53293639      -1.81845208
C        2.07640734       0.74646861      -2.11432908
C       -3.20002566       1.75063061      -0.11009908
C        0.81728634      -0.55010739       0.10403392
C        0.39903934       0.74349261      -0.39047508
O        0.29791034      -2.39767639       1.64536292
O       -2.03532866      -0.42124639       0.25062692
O       -0.13182066      -0.32663439       2.23805092
C        0.37051634      -1.22430139       1.34793892
C       -1.98644066       0.71500761      -0.02058508
O       -0.81088366       1.44139661       0.03827892
H       -0.52922066      -0.79511339       3.05742492
H        2.21216734      -2.01128439      -0.25187108
H        0.83126634       2.38560561      -1.71949008
H        3.12721034      -1.03876039      -2.50168508
H        2.76052334       1.32031461      -2.71931308
H       -4.05930766       1.20956161       0.45321992
H       -2.85682266       2.57587761       0.57726792
H       -3.47722166       2.08823961      -1.15534108
