21
Properties=species:S:1:pos:R:3 -405666.3784304936=T pbc="F F F"
C        2.13767473      -0.70530532       0.01895620
C        0.97604573       1.21059468      -1.78525580
C        2.88275273      -0.21866832      -1.13183080
C        2.33940173       0.74541668      -1.94752180
C       -3.08045027       1.62785668       0.22155520
C        0.74612073      -0.43228932       0.12896420
C        0.23497773       0.56887968      -0.74307080
O       -0.06619927      -0.29743732       2.41776820
O       -2.07380227      -0.57201732      -0.47352980
O       -0.20603427      -2.36426032       1.43641320
C        0.15768073      -1.07282132       1.46104320
C       -2.05560627       0.57405668      -0.14919780
O       -0.84512627       1.23575068      -0.27680780
H       -0.83924127      -2.56586932       2.19579720
H        2.65332673      -1.06354432       0.92194120
H        0.43724173       1.81863768      -2.62722380
H        3.88620473      -0.52275632      -1.16774080
H        2.99627873       1.03985068      -2.81427280
H       -2.79866927       2.08743268       1.31121820
H       -3.21758427       2.30072368      -0.67914480
H       -4.13043627       1.25610868       0.34964720
