21
Properties=species:S:1:pos:R:3 -405695.05182214256=T pbc="F F F"
C        1.60920536      -1.38245764      -0.55245546
C        0.77271736       0.93560236      -1.98038846
C        2.47503636      -0.77447764      -1.42804646
C        1.99902936       0.33933736      -2.10706046
C       -2.43899464       2.01719436       1.27263654
C        0.36857536      -0.78391364      -0.23517946
C        0.00195336       0.43181336      -0.88625446
O       -1.38773564      -1.21427264       1.26027154
O       -0.13569864       2.06751036       1.36333154
O        0.18434036      -2.79821564       1.12071954
C       -0.36255764      -1.56070064       0.76421154
C       -1.12860164       1.77074636       0.78820354
O       -1.14074364       1.05211036      -0.43328246
H       -0.37464664      -3.02101864       1.91296454
H        1.96340936      -2.32660664      -0.10026646
H        0.60492736       1.88910036      -2.47348346
H        3.42644636      -1.11630964      -1.72421346
H        2.77300636       0.81537736      -2.75239746
H       -3.18621164       2.33329036       0.57678254
H       -2.76872864       1.07421736       1.79033754
H       -2.33061364       2.69720736       2.18703354
