21
Properties=species:S:1:pos:R:3 -405691.98748475505=T pbc="F F F"
C        1.85657443      -1.39845797      -0.29700409
C        1.31630143       1.21227103      -0.82866309
C        2.78610043      -0.55503997      -0.89043909
C        2.59474443       0.76835803      -1.15077709
C       -2.93599557       1.94939203       0.68946291
C        0.65444943      -0.91486797       0.06200591
C        0.34185043       0.46594803      -0.16766809
O       -1.43169357      -1.79988297       0.87388491
O       -1.82863357       1.80539603      -1.57091809
O        0.57268943      -2.30802397       1.82883591
C       -0.22111557      -1.67318397       0.90332891
C       -1.80677057       1.61916303      -0.35631809
O       -0.78250257       0.98426203       0.32993491
H       -0.12534157      -2.85447597       2.25639991
H        2.05110543      -2.47991697      -0.21171509
H        1.05955143       2.28215203      -1.08363209
H        3.69767243      -1.09738597      -1.07479209
H        3.26570643       1.58748903      -1.50166009
H       -3.80623157       2.12471803       0.02969891
H       -3.02951057       1.05892603       1.32233891
H       -2.64567757       2.75436903       1.30768291
