21
Properties=species:S:1:pos:R:3 -405688.85841741227=T pbc="F F F"
C        1.57526624      -1.51481688      -0.81289488
C        0.87595524       1.07512212      -1.63318288
C        2.38771624      -0.78745388      -1.61551788
C        2.06830824       0.52179112      -1.99068488
C       -2.68100776       2.46876812       0.69306412
C        0.43090224      -0.90668688      -0.22400088
C        0.02567724       0.37889512      -0.75779688
O       -0.81102576      -1.28965688       1.85713312
O       -0.28421176       2.22399612       1.43936812
O       -0.02818276      -3.09899588       0.76441512
C       -0.29317176      -1.75232288       0.86385612
C       -1.23881276       1.84679412       0.83459412
O       -1.18497576       0.95131312      -0.34612788
H       -0.26148876      -3.47989788       1.61773612
H        1.79538824      -2.60370488      -0.69612188
H        0.45183024       1.99768112      -1.97087788
H        3.25691724      -1.31147288      -1.98703188
H        2.79466724       0.98968512      -2.66005388
H       -3.22598876       2.15581612      -0.11808788
H       -3.30246876       2.13891212       1.50839712
H       -2.38936776       3.53246912       0.62786412
