21
Properties=species:S:1:pos:R:3 -405689.0002091967=T pbc="F F F"
C        2.11628702      -1.03437450      -0.36563501
C        0.53905602       0.90675650      -1.69139401
C        2.50018802      -0.49933850      -1.65096601
C        1.75350502       0.55374750      -2.26378801
C       -2.84568398       2.07246650       0.41173599
C        0.95564702      -0.62011250       0.26177299
C        0.20437802       0.35927150      -0.43853001
O        1.23628302      -2.05897450       2.15815999
O       -2.51107598       0.34679150      -1.06676501
O       -0.68167198      -0.83877050       1.98797699
C        0.53067902      -1.26164150       1.52041599
C       -2.06154998       1.06539350      -0.19832301
O       -0.71339598       1.03075950       0.36988099
H       -0.74056398      -1.43940750       2.78196799
H        2.71662902      -1.74257550       0.14201599
H       -0.06337698       1.79426950      -1.95221201
H        3.54133302      -0.79286950      -1.93546701
H        2.23554902       0.98359650      -3.27333501
H       -2.40673198       3.09082350       0.58093599
H       -3.82498198       2.13844850       0.02721299
H       -3.05126498       1.73196050       1.45194199
