21
Properties=species:S:1:pos:R:3 -405674.6777425114=T pbc="F F F"
C        2.06366745      -1.21288628      -0.38359665
C        0.63784445       0.97892972      -1.53704165
C        2.69612545      -0.31355728      -1.31870965
C        1.95936045       0.72339072      -1.90493665
C       -2.82977655       2.32924672       0.24333735
C        0.66660145      -1.03449228       0.04128935
C        0.03765845       0.20090572      -0.49975965
O        0.42693545      -2.71357328       1.78690935
O       -0.44628555       2.52397972       0.77949935
O       -1.45906955      -1.89281928       0.98436235
C       -0.08778855      -1.99760728       0.97506335
C       -1.34806055       1.94480772       0.30038835
O       -1.17880355       0.51703672      -0.22638965
H       -1.75772755      -2.19003728       1.93297335
H        2.59713545      -1.98246128       0.13628135
H        0.00586245       1.72632172      -1.98031465
H        3.58013745      -0.42105028      -1.91470565
H        2.27042945       1.15537572      -2.87399965
H       -3.19448955       2.31696872      -0.82964165
H       -3.54704855       1.63912472       0.79587835
H       -2.97617955       3.32538372       0.60026435
