21
Properties=species:S:1:pos:R:3 -405689.1874930757=T pbc="F F F"
C        1.96401994      -1.22111911      -0.52490126
C        1.02808394       1.32276789      -1.34949726
C        2.66702394      -0.52613611      -1.49346526
C        2.24321594       0.75780189      -1.89192826
C       -2.93337706       2.01783789       0.60284674
C        0.85909294      -0.69811011       0.13714474
C        0.35710694       0.53818789      -0.37595326
O        0.93064094      -1.61263711       2.24238074
O       -2.33496506       0.25170189      -0.93132626
O       -1.18336606      -1.67605811       1.27083274
C        0.17575494      -1.36892011       1.29382474
C       -1.90809006       1.06635089      -0.13466026
O       -0.65317006       1.27898189       0.35385674
H       -1.33020606      -2.27177311       2.08577974
H        2.22477294      -2.20254011      -0.25770126
H        0.66147294       2.27134589      -1.70726826
H        3.52149994      -0.92360311      -1.92383026
H        2.77867894       1.46376389      -2.60388026
H       -3.05234706       1.89014989       1.65954874
H       -2.53768806       3.10052589       0.60926474
H       -3.85048106       2.08508489       0.03662974
