21
Properties=species:S:1:pos:R:3 -405692.8253045506=T pbc="F F F"
C        1.84672979      -1.29882776      -0.54331731
C        1.44480779       1.35454024      -0.24811431
C        2.79175579      -0.39525676      -1.15358731
C        2.68838179       0.96381324      -0.79940631
C       -2.84670421       2.21383324       0.60610669
C        0.61940979      -0.91650176       0.05933569
C        0.39276779       0.49598424       0.07162069
O       -1.49917321      -1.50090276       0.96676169
O       -1.65096721       1.54153024      -1.44907331
O        0.19391179      -3.03133876       0.89472969
C       -0.33898621      -1.77858876       0.75368769
C       -1.72722421       1.53401424      -0.22438031
O       -0.73708621       1.06413024       0.69622769
H       -0.60927021      -3.57188576       1.09040969
H        2.14661779      -2.29772076      -0.63830531
H        1.31438179       2.40217924      -0.06053731
H        3.64698979      -0.77005676      -1.74562831
H        3.51986479       1.57798624      -0.87407531
H       -3.20779421       1.78538024       1.49800969
H       -2.52768821       3.17844424       0.83220069
H       -3.66494121       2.39825224      -0.09814131
