21
Properties=species:S:1:pos:R:3 -405689.6088078405=T pbc="F F F"
C        1.85757217      -1.13810373      -0.48891345
C        0.92236917       1.34178727      -1.36390045
C        2.31931817      -0.64399973      -1.69943345
C        1.89599117       0.68756527      -2.11100445
C       -3.05220783       1.55976827       0.49153655
C        0.80811017      -0.53363173       0.31042255
C        0.35123617       0.72542327      -0.17363345
O        1.07694317      -2.07302073       2.16980355
O       -1.87353383       0.34310127      -1.36520645
O       -0.89898383      -1.12360673       1.87625655
C        0.36284217      -1.30021073       1.52483555
C       -1.90438583       1.02158927      -0.31149145
O       -0.77298883       1.37083127       0.34233355
H       -1.14722483      -1.73071073       2.59398155
H        2.18066017      -2.22576273      -0.31579245
H        0.68115317       2.33146727      -1.60918745
H        3.03582217      -1.23465473      -2.19281045
H        2.14401317       1.09028227      -3.10830445
H       -3.97202383       1.59012727      -0.05075945
H       -3.30002283       0.84145727       1.17806855
H       -2.84286283       2.38726227       1.02755155
