21
Properties=species:S:1:pos:R:3 -405682.7927339337=T pbc="F F F"
C        2.05161112      -1.17579541      -0.33370866
C        0.81022112       1.12674059      -1.67126566
C        2.56820612      -0.55132741      -1.52888366
C        1.95732612       0.51072059      -2.25374266
C       -3.25088988       1.62562159       0.50074334
C        0.93974112      -0.47771641       0.24011534
C        0.34588012       0.60998359      -0.41570066
O        0.91831612      -2.29627841       1.99021934
O       -2.25809388       0.22389459      -1.27841366
O       -0.46485088      -0.40667741       2.40169634
C        0.45190312      -1.15683341       1.59815734
C       -2.13636988       0.91913159      -0.30225266
O       -0.81542988       1.15281559       0.16751734
H       -0.74187788      -1.02559941       3.10441234
H        2.43817512      -2.01808441       0.09217434
H        0.27668012       1.93631959      -2.25664566
H        3.47525712      -1.00840941      -2.04175766
H        2.21621912       0.82179559      -3.30255466
H       -3.16069788       1.78311559       1.60319234
H       -3.34013288       2.59108359       0.08809134
H       -4.08470188       0.93524059       0.25118234
