21
Properties=species:S:1:pos:R:3 -405683.52211521554=T pbc="F F F"
C        2.01110944      -1.18707812      -0.13864921
C        0.94524644       1.23998588      -1.09792621
C        2.66378744      -0.45639412      -1.18370821
C        2.16794644       0.75745988      -1.63900221
C       -3.11978256       1.83710788       0.31300379
C        0.80018344      -0.68158212       0.27744779
C        0.35497544       0.51793588      -0.18738721
O       -0.85206356      -1.17770112       2.09827479
O       -1.79608156       1.23993488      -1.82316921
O        0.61961644      -2.73433812       1.56096779
C        0.08229944      -1.46894612       1.38486479
C       -1.91362456       1.32941588      -0.54821621
O       -0.92085356       1.04531288       0.33269579
H        0.07804044      -3.00039112       2.30920579
H        2.32418344      -2.15819812       0.23928779
H        0.70311244       2.22379488      -1.40203221
H        3.61600244      -0.81392112      -1.29121621
H        2.72202244       1.35881988      -2.44307821
H       -2.82147656       2.77638788       0.82065179
H       -4.11690156       1.79596488      -0.21393921
H       -3.22988556       1.15694388       1.13335079
