21
Properties=species:S:1:pos:R:3 -405687.1627705664=T pbc="F F F"
C        1.77265750      -1.20412192      -0.47191600
C        0.85926750       1.16469008      -1.46368300
C        2.51147550      -0.60180792      -1.51535500
C        1.88820650       0.52752108      -2.05956800
C       -3.16589050       1.38293808       0.46680000
C        0.76226050      -0.49116292       0.23566800
C        0.32724850       0.76439408      -0.31629800
O        0.99724050      -2.19739292       1.97726900
O       -1.91288250       0.21290608      -1.28261900
O       -0.64225050      -0.56238792       2.14252100
C        0.40252850      -1.22467692       1.53566500
C       -1.99160050       0.98108308      -0.34991200
O       -0.81568650       1.36898508       0.22122300
H       -0.74252450      -1.18990592       2.87312300
H        2.25590950      -2.09340592      -0.05016800
H        0.45030350       2.01521408      -1.96367000
H        3.45098050      -1.07311592      -1.72868100
H        2.30066850       0.93721808      -2.96246000
H       -2.97166150       2.45448308       0.69356400
H       -4.15918750       1.39201008       0.03991400
H       -2.99427950       0.78620208       1.45566900
