21
Properties=species:S:1:pos:R:3 -405691.3882572666=T pbc="F F F"
C        2.18719898      -0.90255395      -0.09384872
C        0.77181198       0.71826605      -1.73170872
C        2.70478098      -0.70878495      -1.38371472
C        1.89722698       0.14035705      -2.18516572
C       -3.09875902       1.14236205       0.63505728
C        0.91636398      -0.56783895       0.31606928
C        0.27406098       0.39337105      -0.45761272
O       -0.89590802      -1.33392695       1.69540828
O       -2.34744802       0.92762305      -1.62284772
O        1.23756398      -0.90293995       2.60916828
C        0.25962598      -0.97067595       1.60656628
C       -2.09490202       1.04566105      -0.43859672
O       -0.83410902       0.97073805       0.14796328
H        0.74818998      -0.99496695       3.42511928
H        2.70414898      -1.60828395       0.55070928
H        0.30178998       1.41890605      -2.37776972
H        3.75461798      -1.01372095      -1.68407772
H        2.08501998       0.64565405      -3.18059472
H       -3.97776102       0.50125205       0.53263028
H       -2.54726502       0.80258405       1.52849128
H       -3.45068302       2.16598205       0.74387428
