21
Properties=species:S:1:pos:R:3 -405686.0331034884=T pbc="F F F"
C        1.91079316      -1.34472598      -0.35275310
C        1.35836916       1.29520902      -0.68867010
C        2.75679116      -0.56642898      -1.17066610
C        2.54615716       0.77304202      -1.15643110
C       -3.08444484       2.07432902       0.38989990
C        0.67601816      -0.86762498       0.10699490
C        0.32817016       0.54349502      -0.10756410
O       -1.38841384      -1.44766598       1.33556790
O       -1.62603984       1.51073802      -1.57773710
O        0.55108116      -2.67173698       1.53813390
C       -0.25220184      -1.67158398       0.99369490
C       -1.81732884       1.58528102      -0.38681310
O       -0.86479384       1.02554102       0.52010690
H        0.01491216      -3.41970498       1.95295490
H        2.04170516      -2.40257998      -0.25508910
H        1.08921816       2.31715502      -0.86217610
H        3.69924716      -0.97860998      -1.61259110
H        3.20180816       1.63302602      -1.42492610
H       -3.58823484       2.77009102      -0.22840410
H       -3.65004184       1.17038702       0.41460190
H       -2.64404584       2.35331902       1.43991890
