21
Properties=species:S:1:pos:R:3 -405686.3464870136=T pbc="F F F"
C        1.85082274      -1.18294177      -0.36794340
C        1.38550574       1.49539223      -1.21557840
C        2.67436074      -0.60308177      -1.36882540
C        2.45809674       0.74704423      -1.68743540
C       -3.14543626       1.34411023       0.29776860
C        0.68064974      -0.49508377       0.11671060
C        0.36470374       0.81315723      -0.34795640
O       -0.93491726      -0.58335677       2.02077560
O       -1.97196626      -0.17619177      -0.93780240
O        0.51030874      -2.25108177       1.64945060
C       -0.00563126      -1.01417877       1.34307660
C       -1.94444326       0.73626323      -0.19968840
O       -0.78567826       1.50610623       0.00301260
H        0.02625874      -2.85224577       2.34129860
H        1.81236374      -2.21753877      -0.17012440
H        1.18287074       2.51415623      -1.62960640
H        3.35394574      -1.21162577      -1.91394740
H        3.08418874       1.22483223      -2.52213840
H       -2.79512226       2.00546423       1.13801460
H       -3.75303226       1.91063623      -0.48303840
H       -3.82797926       0.58753623       0.66507460
