21
Properties=species:S:1:pos:R:3 -405692.8961228466=T pbc="F F F"
C        2.08707237      -0.89963333      -0.33985423
C        0.78254837       1.05911067      -1.73126223
C        2.68440237      -0.43588033      -1.55363923
C        1.98389937       0.54898467      -2.24995123
C       -3.09532563       1.96377167       0.22233577
C        0.96163937      -0.37929633       0.26837577
C        0.31070937       0.66457267      -0.41124223
O        0.67739737      -2.35785733       1.59655877
O       -2.42649063      -0.32634433      -0.34425723
O       -0.33790463      -0.55753833       2.23650877
C        0.46044437      -1.19983433       1.39757677
C       -2.11069663       0.86140867      -0.13087223
O       -0.83907963       1.24829467       0.13539477
H       -0.74297263      -1.25654233       2.83724277
H        2.52443437      -1.78605133       0.11526577
H        0.30948337       1.93531067      -2.24304423
H        3.66353337      -0.70341733      -1.80705923
H        2.41163937       0.73503767      -3.26275123
H       -3.91384263       1.58807067       0.82898177
H       -2.52661763       2.85928867       0.65020077
H       -3.68429163       2.27069067      -0.71713423
