21
Properties=species:S:1:pos:R:3 -405682.2635094003=T pbc="F F F"
C        2.00428388      -1.08930809      -0.43070834
C        0.71504188       1.12115691      -1.57687134
C        2.53841788      -0.55930909      -1.58698834
C        1.90696888       0.60092791      -2.16937134
C       -3.07423712       1.69071491       0.51628266
C        1.00367288      -0.51969509       0.21427066
C        0.39867088       0.63735391      -0.36248934
O        0.51146788      -2.30187109       1.80829266
O       -2.08792112      -0.07786109      -0.98218834
O       -0.49980012      -0.44441509       2.24488466
C        0.35211888      -1.19020509       1.46609166
C       -1.97344212       0.85710991      -0.21805834
O       -0.68261112       1.37672391       0.16366066
H       -0.86745912      -1.15575609       2.80821666
H        2.44821388      -1.87003209       0.11529266
H        0.29691088       1.97361591      -1.99943934
H        3.48943088      -0.91047709      -1.81311434
H        2.23506088       1.02683291      -3.08503534
H       -2.73743812       2.76086391       0.41279666
H       -4.08782812       1.39100391       0.14670266
H       -3.08894912       1.31495291       1.46598766
