21
Properties=species:S:1:pos:R:3 -405685.24027682986=T pbc="F F F"
C        1.69058460      -1.34906121      -0.50563950
C        1.65366160       1.42693379      -0.19740350
C        2.65981060      -0.64754521      -1.07336950
C        2.77532060       0.77282279      -0.79440350
C       -2.94931640       1.57268179       0.71562150
C        0.59148560      -0.73807221      -0.06746550
C        0.53375360       0.66137979       0.11526550
O       -1.58241840      -1.33281221       0.71477750
O       -1.64228340       1.65560279      -1.39708350
O        0.21769060      -2.72788221       1.06737850
C       -0.41230640      -1.59073621       0.61262650
C       -1.73249140       1.46623679      -0.20218350
O       -0.62654740       1.11660879       0.57282250
H       -0.38737040      -3.18583221       1.69181350
H        1.71352860      -2.40914821      -0.46021050
H        1.72761560       2.37775979       0.25572550
H        3.46366560      -1.09072521      -1.56265350
H        3.63927960       1.38134579      -1.20038150
H       -3.57427040       2.29424779       0.25894750
H       -3.37158440       0.59767379       0.61330050
H       -2.82148040       1.73486679       1.83423250
