21
Properties=species:S:1:pos:R:3 -405682.42639785487=T pbc="F F F"
C        2.32637680      -0.68935416      -0.05893625
C        0.59675280       0.74140884      -1.58707125
C        2.77255480      -0.31513616      -1.32911725
C        1.80053980       0.40095284      -2.11344825
C       -3.02846620       1.66912884       0.70569075
C        0.95236480      -0.63933116       0.37559675
C        0.05644380       0.15911184      -0.42153525
O        1.23502380      -1.92849616       2.35345975
O       -1.85294320       2.17031684      -1.29739025
O       -0.84054620      -1.68919016       1.67292375
C        0.46181380      -1.46495016       1.49945475
C       -2.08342120       1.43023984      -0.36307225
O       -1.31157520       0.28417384      -0.19440925
H       -0.73903320      -2.14950216       2.51276275
H        3.10240580      -1.25872416       0.63667975
H       -0.08724420       1.20840484      -2.25972425
H        3.77013580      -0.38493816      -1.71311425
H        2.02617980       0.45957584      -3.25248625
H       -2.65341420       2.28173584       1.58099475
H       -3.95720320       2.22420384       0.42158575
H       -3.39960820       0.69554084       1.05011275
