21
Properties=species:S:1:pos:R:3 -405680.54071832536=T pbc="F F F"
C        2.15884598      -0.99750558      -0.13616496
C        0.79178398       0.97356342      -1.63061196
C        2.66225698      -0.56307758      -1.30811696
C        1.96549498       0.37375342      -2.17155496
C       -3.14318902       1.51392142       0.52797704
C        0.97321498      -0.41776358       0.33174704
C        0.32890498       0.60732842      -0.32326896
O       -0.96055502      -1.43403958       1.39909804
O       -2.15386902       0.49781142      -1.41725096
O        1.03020898      -1.41348958       2.47226404
C        0.17662398      -1.09245258       1.32411904
C       -2.06219802       0.90733742      -0.31734196
O       -0.73954302       1.18570042       0.39382104
H        0.35786898      -1.70870258       3.10568404
H        2.48852098      -1.92347858       0.35932504
H        0.37865898       1.81089342      -2.11398596
H        3.59186998      -0.87102558      -1.58903496
H        2.47233198       0.46317142      -3.12311096
H       -3.47346902       2.39941142       0.01993604
H       -4.05265802       0.90327142       0.67890704
H       -2.81002902       1.86059942       1.55709504
