21
Properties=species:S:1:pos:R:3 -405672.47378115915=T pbc="F F F"
C        1.88289673      -1.29947506      -0.47332701
C        0.62998073       1.00103694      -1.67743501
C        2.42463373      -0.60805406      -1.64112401
C        1.77460273       0.51686294      -2.26309701
C       -3.00782727       1.75761894       0.64204199
C        0.89215673      -0.54327706       0.20326999
C        0.35069373       0.65830194      -0.33146901
O        1.29208773      -1.46280506       2.46595199
O       -2.17854027       0.36642394      -1.17064301
O       -0.88199227      -1.47579406       1.56954999
C        0.53771273      -1.24977806       1.54877999
C       -1.98124327       1.05072094      -0.11267701
O       -0.66564827       1.36796694       0.37103399
H       -1.12552627      -1.91589006       2.36464899
H        2.34850473      -2.07023506       0.14924099
H       -0.06464027       1.72919794      -2.21332401
H        3.34274773      -0.95330706      -2.14989901
H        2.23198073       1.06001094      -3.08198901
H       -3.77098127       1.13937794       1.23696099
H       -2.57252827       2.45919794       1.24517699
H       -3.47557627       2.37544394      -0.02881201
