21
Properties=species:S:1:pos:R:3 -405682.04750373046=T pbc="F F F"
C        1.88870445      -1.15912234      -0.51144747
C        1.19312245       1.29123066      -1.46793047
C        2.69914945      -0.55644234      -1.53804647
C        2.39527845       0.76740266      -1.93151047
C       -3.04147455       1.91642566       0.48034553
C        0.66557645      -0.65683534       0.02943853
C        0.31519945       0.61669766      -0.55411347
O        0.65581945      -2.33262334       1.72261653
O       -2.51481255      -0.41015634      -0.30456447
O       -0.38846655      -0.28102334       2.11142253
C        0.29756045      -1.18916634       1.32748053
C       -2.19378355       0.74783866      -0.05219347
O       -0.88122255       1.28680966      -0.26460747
H       -0.59850255      -0.89082034       2.83067153
H        2.37567345      -1.93701234      -0.06050547
H        0.68100645       2.15908666      -1.91069247
H        3.64889245      -0.84062434      -1.92156047
H        3.02946445       1.35421366      -2.56782247
H       -3.52948655       2.46735566      -0.32721047
H       -3.72362855       1.42798766       1.14613853
H       -2.46783855       2.65647166       1.21790253
