21
Properties=species:S:1:pos:R:3 -405674.23552777065=T pbc="F F F"
C        1.88921037      -1.25715624      -0.56073075
C        0.98967537       1.11365176      -1.58378375
C        2.47055637      -0.79828924      -1.65859875
C        1.97366637       0.42474276      -2.17808975
C       -3.07137863       1.32682676       0.77591625
C        0.96058137      -0.51703724       0.18840525
C        0.43784437       0.63852676      -0.32917075
O        0.95510837      -1.16106224       2.66451725
O       -2.04655563       0.64676476      -1.36237375
O       -0.99226863      -1.42408224       1.42134425
C        0.31489237      -1.07707424       1.55998925
C       -1.93769463       1.00106176      -0.18022975
O       -0.73299463       1.20893676       0.38400825
H       -1.31278263      -1.91328524       2.19646625
H        1.78125737      -2.27449424      -0.09964375
H        0.40697037       1.98268476      -2.02463075
H        3.39005437      -1.33462524      -1.98134875
H        2.43831237       0.78880876      -3.12442375
H       -3.49927063       2.32161476       0.60151225
H       -3.78826463       0.56918376       0.58349925
H       -2.66604363       1.25355276       1.75632025
