21
Properties=species:S:1:pos:R:3 -405698.85712803627=T pbc="F F F"
C        2.07078991      -0.95463405      -0.24677045
C        0.98011491       1.12676295      -1.54629045
C        2.74544791      -0.46272305      -1.33418245
C        2.17167991       0.60504095      -2.00606745
C       -3.06812009       1.61818295       0.72641355
C        0.86507091      -0.45237505       0.28326055
C        0.30300591       0.58928295      -0.46615745
O        0.80518391      -2.35873305       1.65665855
O       -2.40089809       0.23646695      -1.24383345
O       -0.64695409      -0.70104505       2.10909455
C        0.29552891      -1.27825805       1.38499555
C       -2.11238609       0.90075795      -0.20675745
O       -0.83530309       1.28496595       0.08464955
H       -0.79403909      -1.18858805       2.91932755
H        2.39269191      -1.88353405       0.28494755
H        0.46761191       1.90412395      -2.11818745
H        3.48074491      -1.03926705      -1.84488945
H        2.62927491       1.02012895      -2.92523345
H       -2.95327509       2.74536295       0.59825055
H       -4.10520409       1.23285695       0.50250155
H       -2.88566809       1.47676895       1.83595255
