21
Properties=species:S:1:pos:R:3 -405692.88888595486=T pbc="F F F"
C        1.82812724      -1.32957024      -0.30106172
C        1.39291924       1.47016976      -0.45283972
C        2.84426324      -0.43682124      -0.71904472
C        2.57036224       0.87302976      -0.88597772
C       -2.74291976       2.39320476       0.40504928
C        0.66056124      -0.76531224       0.15878828
C        0.47944624       0.65828376       0.15189528
O       -1.43923276      -1.49999324       1.14351828
O       -1.61707276       1.02157976      -1.29172972
O       -0.01467576      -2.95902824       0.35732628
C       -0.39466876      -1.72794224       0.57617528
C       -1.66954776       1.45041176      -0.14056172
O       -0.66562076       1.18343076       0.81360728
H       -0.88641776      -3.45687624       0.33485728
H        2.02431924      -2.39545224      -0.41290772
H        1.14313924       2.42730176      -0.77111672
H        3.69646424      -0.81565524      -1.23469672
H        3.27223824       1.57596976      -1.39110472
H       -3.78115576       2.06008076      -0.03576972
H       -2.73295876       2.12726276       1.48519828
H       -2.59263576       3.46560276       0.17261528
