21
Properties=species:S:1:pos:R:3 -405696.8719982003=T pbc="F F F"
C        1.99549648      -1.11271978      -0.37660470
C        0.70397448       1.10551522      -1.56339770
C        2.47107648      -0.63361978      -1.58825570
C        1.75924748       0.40618722      -2.22728870
C       -3.10123752       1.63234922       0.36308430
C        0.92567948      -0.43588578       0.31943930
C        0.38936348       0.70795522      -0.24701970
O        0.80441648      -2.26744078       1.71804130
O       -2.05205852       0.07154322      -1.11135270
O       -0.43161552      -0.49438878       2.41038730
C        0.34273248      -1.18360878       1.48948930
C       -1.98224052       0.92353322      -0.32445470
O       -0.77202852       1.39928922       0.27918530
H       -0.51377152      -1.15751278       3.08469230
H        2.48122948      -1.98153178       0.04811530
H        0.14798448       1.91827722      -2.16666570
H        3.29878148      -1.15245278      -2.05009670
H        2.09338248       0.72277922      -3.22916470
H       -3.97216252       1.54109622      -0.35005270
H       -3.30721652       1.06016122       1.26879030
H       -3.04716452       2.75311622       0.55329730
