21
Properties=species:S:1:pos:R:3 -405681.3797811438=T pbc="F F F"
C        1.97148036      -1.37904407      -0.32959446
C        1.24655236       1.44728693      -0.44768146
C        2.78999636      -0.36992407      -0.73312146
C        2.42370636       0.97797993      -1.00412146
C       -2.61082264       2.38228293       0.51577954
C        0.65263436      -0.96537607      -0.11239446
C        0.40140536       0.49524793       0.03606154
O       -1.60764864      -1.58460607       0.55668454
O       -1.63038164       1.35626093      -1.36550646
O        0.18084636      -2.88062507       1.28291854
C       -0.35375864      -1.83556607       0.60360654
C       -1.64527364       1.55330893      -0.14605046
O       -0.68146264       1.03546893       0.70508154
H       -0.61703664      -3.26042407       1.74840354
H        2.34998536      -2.38216307      -0.19582946
H        0.93318936       2.46380793      -0.51614346
H        3.79912036      -0.82084307      -1.07667546
H        3.12112436       1.62578093      -1.54298846
H       -3.54151964       2.55808993      -0.07436346
H       -2.73837164       2.00750793       1.55020654
H       -2.02820464       3.25672793       0.65246454
