21
Properties=species:S:1:pos:R:3 -405676.26069103763=T pbc="F F F"
C        1.97458267      -1.13310284      -0.48981216
C        1.14094767       1.34330516      -1.45175616
C        2.67545567      -0.54063584      -1.52276316
C        2.33889367       0.72767716      -1.91213916
C       -3.01564633       1.79421916       0.53336184
C        0.72914067      -0.58767884      -0.03784116
C        0.31143467       0.62486516      -0.58900316
O        0.62323467      -2.30946484       1.73047484
O       -2.49595733      -0.36641084      -0.29329716
O       -0.39637233      -0.35525884       2.14043884
C        0.20808467      -1.20621484       1.32640184
C       -2.11714433       0.73873916      -0.05989616
O       -0.86835033       1.32952216      -0.34273216
H       -0.40704933      -0.41880584       3.12396684
H        2.06879467      -2.14647184      -0.03156116
H        0.98786867       2.32773216      -1.82820016
H        3.47726167      -1.28854684      -1.71369216
H        2.91607467       1.22503816      -2.77572816
H       -3.57467333       2.31353916      -0.24406616
H       -3.87925733       1.41936816       1.21221284
H       -2.34889233       2.60398016       0.96683484
