21
Properties=species:S:1:pos:R:3 -405677.996083828=T pbc="F F F"
C        2.13781203      -1.22363955      -0.38166439
C        0.53396303       0.81575645      -1.51237139
C        2.58817203      -0.61650155      -1.63349539
C        1.71024903       0.34534345      -2.20246139
C       -2.95578297       1.73728945       0.80525361
C        0.94408803      -0.79005255       0.27665061
C        0.11640203       0.15739345      -0.42092139
O        1.33077203      -1.89990455       2.29638061
O       -2.14132097       1.47182845      -1.63159739
O       -0.76235697      -0.97668555       2.04053561
C        0.54943103      -1.27966755       1.60001661
C       -2.06307797       1.35849145      -0.41988639
O       -0.97798797       0.81752045       0.28519261
H       -0.85808797      -1.34203255       2.93683861
H        2.66735503      -2.01177955      -0.03052639
H        0.04007903       1.78861145      -1.85724539
H        3.49751403      -1.15041155      -2.01059039
H        2.12332203       0.83600345      -3.12859739
H       -3.49527397       2.58572145       0.45052161
H       -3.63890997       0.82750145       0.81551161
H       -2.25472997       1.78036945       1.66672361
