21
Properties=species:S:1:pos:R:3 -405682.61598024605=T pbc="F F F"
C        1.98146105      -1.04640122      -0.27861952
C        1.09759105       1.14721878      -1.76937552
C        2.85566505      -0.42093122      -1.15352652
C        2.51282405       0.70125478      -1.79904952
C       -3.18873895       1.54014878       0.33428548
C        0.76721405      -0.41978022       0.10496648
C        0.25293005       0.66206278      -0.64926152
O       -0.51648095      -0.20385222       2.14586948
O       -2.13125395      -0.56856822      -0.28536852
O        0.43612605      -2.21455522       1.64876148
C        0.05551905      -0.89107322       1.32228348
C       -2.13213295       0.60361278      -0.16495152
O       -0.95783295       1.39020078      -0.35481052
H        0.10674405      -2.29986822       2.54151448
H        2.34267805      -1.93047722       0.17605648
H        0.88341805       2.10072278      -2.20655752
H        3.84698505      -1.00283722      -1.42171552
H        3.27451305       0.94625178      -2.60154852
H       -3.98262495       0.84421778       0.74639948
H       -2.73811395       1.97441878       1.21192148
H       -3.46870995       2.37100378      -0.24817352
