21
Properties=species:S:1:pos:R:3 -405688.30787363974=T pbc="F F F"
C        2.13112447      -0.92103956      -0.07156328
C        0.76975947       0.88118444      -1.69129528
C        2.62708047      -0.58372556      -1.35578928
C        2.01013947       0.36058844      -2.08164728
C       -3.14384253       1.76210144       0.35574072
C        0.90431247      -0.35819556       0.40028772
C        0.18607147       0.52362144      -0.43864728
O       -0.86467953      -1.02149056       2.01622572
O       -2.28355453       0.17024844      -1.46397728
O        1.34927647      -1.68782156       2.31307572
C        0.33696847      -0.95471056       1.66174372
C       -2.11430853       0.91544844      -0.52143228
O       -0.95762053       1.12330844       0.04049672
H        1.05326347      -1.85723856       3.26730472
H        2.63288747      -1.80128456       0.37349272
H        0.34078347       1.65939344      -2.37294328
H        3.31671647      -1.28072256      -1.76288828
H        2.35431447       0.60579244      -3.06262528
H       -2.79877753       1.66966844       1.39736872
H       -3.09950953       2.85214444       0.14857972
H       -4.19303053       1.26946344       0.45675172
