21
Properties=species:S:1:pos:R:3 -405685.90857889486=T pbc="F F F"
C        2.02351811      -1.07641865      -0.48285600
C        0.67319311       1.05591535      -1.40192900
C        2.43324911      -0.41495765      -1.60924700
C        1.76221311       0.57846235      -2.19474600
C       -3.06332489       1.96513335       0.17592500
C        0.94848811      -0.58631065       0.22866400
C        0.30564711       0.57147635      -0.19757600
O        0.90907011      -2.41946465       1.89285400
O       -2.25458089       0.03120235      -1.06319400
O       -0.35093889      -0.52546865       2.23320400
C        0.56312711      -1.28970665       1.47961500
C       -2.05278889       0.99766735      -0.29984100
O       -0.82840189       1.21881335       0.39636900
H       -0.73904089      -1.18174065       2.88756700
H        2.65074511      -1.91224865      -0.17215900
H        0.02333811       1.89710635      -1.88929600
H        3.34343911      -0.84961365      -2.07617900
H        2.19693411       0.98942035      -3.14658800
H       -2.96814789       2.33020835       1.18805600
H       -3.21588189       2.80126835      -0.61772600
H       -4.00522789       1.37786435       0.14885600
