21
Properties=species:S:1:pos:R:3 -405686.0708270913=T pbc="F F F"
C        1.91013889      -1.32523629      -0.39508154
C        1.27274289       1.31974671      -0.63192354
C        2.94547589      -0.43176129      -0.81161754
C        2.53553389       0.91259271      -1.10200554
C       -2.90249011       2.13117471       0.53721446
C        0.66106889      -0.94181029       0.01203846
C        0.43459989       0.49191071       0.00031646
O       -1.54892511      -1.45940129       0.75885946
O       -1.56720011       1.38103971      -1.32480054
O        0.17126689      -2.79590529       1.17961446
C       -0.37457911      -1.71380429       0.63709646
C       -1.71975911       1.46721171      -0.12934854
O       -0.63679911       1.15690471       0.74669446
H       -0.55813811      -3.29952729       1.68115546
H        2.22712589      -2.32717429       0.01774346
H        0.82715989       2.31955871      -0.60463254
H        3.95096289      -0.67030729      -1.15164354
H        3.23940689       1.73786071      -1.34544654
H       -3.35654911       2.92185671      -0.05627454
H       -3.63466811       1.31350571       0.82278146
H       -2.56083211       2.51767671       1.47055246
