21
Properties=species:S:1:pos:R:3 -405693.19732190145=T pbc="F F F"
C        1.81606976      -1.54108977      -0.62623586
C        1.18967676       1.21745823      -1.09285286
C        2.61677776      -0.79139377      -1.40126386
C        2.31248476       0.57550723      -1.64072586
C       -2.64641924       2.05097223       1.39497614
C        0.63359876      -0.95700277      -0.02239186
C        0.38813876       0.41100823      -0.18854686
O        0.17316376      -2.47860677       1.81942614
O       -1.42930224       2.72241123      -0.70583886
O       -1.42785424      -2.11809377       0.24726314
C       -0.14953824      -1.85794877       0.85382314
C       -1.57615424       1.98881623       0.25095814
O       -0.69815524       0.87513423       0.49232614
H       -1.82083224      -2.95003777       0.71760514
H        2.05420176      -2.57651577      -0.25462386
H        0.94958676       2.31824923      -1.20462686
H        3.48153476      -1.17969077      -1.95952886
H        3.05184276       1.08505723      -2.25784486
H       -2.91994124       0.99755223       1.76450314
H       -2.20966624       2.57462623       2.28298514
H       -3.49804524       2.53429723       0.93704814
