21
Properties=species:S:1:pos:R:3 -405690.61335161055=T pbc="F F F"
C        1.89119937      -1.16291259      -0.49723128
C        0.61966237       0.99104941      -1.63139128
C        2.35069737      -0.59702559      -1.64400828
C        1.75011837       0.47073841      -2.26139728
C       -2.95359163       1.80849941       0.55489272
C        0.88071537      -0.52728359       0.26180972
C        0.34396237       0.64817641      -0.30346828
O        1.31297637      -1.51872259       2.41406572
O       -2.14526363       0.33881841      -1.09170828
O       -0.86861163      -1.52776859       1.58400072
C        0.48685037      -1.13241959       1.58052772
C       -1.89838763       1.10532441      -0.23429128
O       -0.70457463       1.30022941       0.42517572
H       -1.04558163      -2.01431459       2.39240772
H        2.28052537      -2.14725159      -0.25534928
H        0.00537737       1.78645241      -2.16455628
H        3.30533037      -0.97274659      -2.04664128
H        2.11056037       0.83934841      -3.21876628
H       -3.72221463       1.03199941       0.95712072
H       -2.54723463       2.38696241       1.32666672
H       -3.54144863       2.32639741      -0.15900028
