21
Properties=species:S:1:pos:R:3 -405695.0573332094=T pbc="F F F"
C        2.17241728      -1.10914519      -0.28742924
C        0.68442028       0.83760581      -1.69761324
C        2.68602328      -0.61431919      -1.44537324
C        1.92169528       0.31706281      -2.14483024
C       -2.83272872       1.86351981       0.85229676
C        0.98069328      -0.64091919       0.23039476
C        0.25560428       0.33805781      -0.43297524
O        0.99077128      -2.15299919       2.16316176
O       -2.46907872       1.22744481      -1.38334224
O       -0.82431572      -0.99930419       1.80660876
C        0.43767828      -1.29376319       1.46113776
C       -2.03524972       1.26222681      -0.22032624
O       -0.82031272       0.97128781       0.24074076
H       -0.88483472      -1.51328319       2.60961876
H        2.57703528      -2.02856919       0.11835376
H        0.08189828       1.64766681      -2.23714224
H        3.65119028      -0.93842119      -1.75713124
H        2.24444928       0.65053581      -3.15697524
H       -3.83968772       1.83119981       0.57126276
H       -2.81478972       1.25178481       1.77108176
H       -2.30075172       2.79850581       1.08501576
