21
Properties=species:S:1:pos:R:3 -405686.55506335164=T pbc="F F F"
C        2.11740129      -1.16549371      -0.25151129
C        0.72681329       0.94791229      -1.42181629
C        2.46786229      -0.64966771      -1.52149929
C        1.85746129       0.45490929      -1.99943629
C       -3.17737571       1.61251629       0.36082671
C        0.96292229      -0.61895271       0.41130271
C        0.26414029       0.39436629      -0.23063429
O       -0.66880571      -1.77958171       1.61106171
O       -2.09148271       1.18806829      -1.75287329
O        1.14534929      -0.97166871       2.68310271
C        0.42319729      -1.23366371       1.56072971
C       -2.01233971       1.18247229      -0.53849729
O       -1.01389471       0.63939629       0.29774271
H        0.58102229      -1.14791171       3.45944771
H        2.85032729      -1.85738371       0.19160071
H        0.15915629       1.75172829      -2.01130129
H        3.31632929      -0.99559671      -2.08105529
H        2.14609129       0.76908029      -2.98114829
H       -2.84285971       2.29059529       1.23887671
H       -3.92543071       2.04322229      -0.35474029
H       -3.78590671       0.80076129       0.70895871
