21
Properties=species:S:1:pos:R:3 -405681.0633349385=T pbc="F F F"
C        1.53916439      -1.58800804      -0.72301950
C        0.73908439       1.01204196      -1.88602150
C        2.35783539      -0.80154104      -1.57230350
C        1.93340239       0.39604096      -2.19146450
C       -2.41339161       2.41514496       0.94587250
C        0.34684539      -0.85919204      -0.31627050
C       -0.01933961       0.40309096      -0.85543750
O       -1.49433061      -1.43120004       1.35505850
O       -0.18484361       1.67507096       1.60958350
O        0.62038239      -2.38951004       1.38924050
C       -0.35508661      -1.57392804       0.84122750
C       -1.09192061       1.69989996       0.77588650
O       -1.16848561       1.04073896      -0.44893150
H        0.04560839      -2.63263004       2.14390450
H        1.62392439      -2.66325004      -0.48384450
H        0.20884439       1.96941196      -2.22014950
H        3.18058239      -1.31035804      -1.97667350
H        2.45158339       0.81082896      -3.03380950
H       -3.06642861       2.29857496       1.84786250
H       -2.24139261       3.53405396       1.02760250
H       -3.01041161       2.38915896       0.03493150
