21
Properties=species:S:1:pos:R:3 -405682.6083826497=T pbc="F F F"
C        2.13818229      -1.05820869      -0.26739835
C        0.81017029       1.13029531      -1.64669635
C        2.58356729      -0.56943269      -1.51751735
C        1.83957029       0.39926631      -2.23381235
C       -2.92770571       1.89089631       0.55738965
C        0.86937529      -0.41513969       0.16052465
C        0.30914029       0.65344831      -0.45043735
O        1.03638329      -1.95663569       2.12956865
O       -2.25551171       0.03139931      -0.82855235
O       -1.02041271      -1.08495369       1.79752265
C        0.44254429      -1.18942469       1.42777465
C       -1.98201771       0.98370531      -0.14682735
O       -0.68591371       1.36314231       0.15805265
H       -0.96162371      -1.86098469       2.37819765
H        2.52857629      -1.90873469       0.14602265
H        0.19334029       1.92123131      -2.07960535
H        3.42460829      -0.99128969      -1.99102435
H        2.04377229       0.75171231      -3.27391235
H       -3.09678471       2.77965631      -0.02327735
H       -3.92398971       1.44289231       0.66984565
H       -2.39232471       2.27056631       1.50969665
