21
Properties=species:S:1:pos:R:3 -405685.167840105=T pbc="F F F"
C        1.96659311      -1.28386387      -0.24555905
C        1.56042811       1.42047313      -0.38665505
C        2.93890711      -0.46193287      -0.81279505
C        2.80215511       0.91196813      -0.80370005
C       -2.68870689       2.14961413       0.55481895
C        0.72579111      -0.77287787       0.00201495
C        0.54797711       0.62118513       0.02912695
O       -1.46083689      -0.97992087       0.90293095
O       -2.15081589       0.50294613      -1.12999805
O       -0.09343689      -2.84050487       0.72245095
C       -0.40645989      -1.52116687       0.51917995
C       -1.81852489       1.23783713      -0.15407805
O       -0.59322389       1.27418213       0.47466695
H       -0.91305089      -3.23266787       1.16121295
H        2.17620511      -2.36209187      -0.25082305
H        1.24181111       2.53548213      -0.43036405
H        3.81192511      -0.90446987      -1.31384505
H        3.59757611       1.64687113      -1.09164705
H       -3.75869889       1.90038313       0.43652595
H       -2.41186889       2.46954113       1.59190495
H       -2.54007989       2.97514113      -0.04752105
