21
Properties=species:S:1:pos:R:3 -405687.5629609617=T pbc="F F F"
C        2.12869354      -0.96580044      -0.22032941
C        1.02622354       1.36129156      -1.48957541
C        2.82088154      -0.28609044      -1.25167441
C        2.29852154       0.84168856      -1.87119041
C       -3.11983546       1.37640856       0.15763259
C        0.84119154      -0.44096444       0.23349559
C        0.37691754       0.63943556      -0.50257741
O       -0.12914146      -0.19111344       2.40492659
O       -2.00397946      -0.57267544      -0.66058141
O       -0.25468246      -2.34311544       1.38566159
C        0.03838054      -0.93946644       1.42248859
C       -1.98754746       0.58498256      -0.30489341
O       -0.83526946       1.27909656      -0.08556241
H       -0.74308146      -2.41830244       2.26623759
H        2.51535854      -1.77334244       0.37422959
H        0.52735854       2.22813456      -1.94718041
H        3.76764754      -0.69336644      -1.68349441
H        2.98668054       1.17823256      -2.70258641
H       -4.01255946       0.99489256      -0.31483341
H       -3.45163446       1.21637356       1.12778859
H       -3.10625046       2.42051256       0.12525059
