21
Properties=species:S:1:pos:R:3 -405683.6238460892=T pbc="F F F"
C        2.10320172      -0.95140859      -0.37036969
C        0.80107872       0.91799541      -1.70515669
C        2.69577172      -0.57259559      -1.51809969
C        1.90901772       0.25292341      -2.26091869
C       -2.86339028       1.80568841       0.80576031
C        0.93745572      -0.43751559       0.30757731
C        0.28243572       0.51502541      -0.42940369
O        1.16201172      -1.83226259       2.27533731
O       -2.61924128       0.30982341      -1.14621469
O       -0.80956228      -0.94429659       1.72230131
C        0.50106772      -1.08751659       1.57228431
C       -2.22825228       0.97455741      -0.21639169
O       -0.75824428       1.16687941       0.13221031
H       -0.92719828      -1.71227159       2.28251931
H        2.71128172      -1.70684359       0.18509731
H        0.09510972       1.56558441      -2.35865669
H        3.53140172      -1.09344959      -1.89333669
H        2.28323472       0.49788141      -3.26123069
H       -3.89823328       1.87751641       0.63398231
H       -2.63457028       1.45126441       1.78944531
H       -2.42656728       2.87617541       0.69093531
