21
Properties=species:S:1:pos:R:3 -405687.6335427154=T pbc="F F F"
C        1.88396175      -1.39284091      -0.26803915
C        1.45064675       1.42427209      -0.46726315
C        2.93813775      -0.48566691      -0.69803315
C        2.69788275       0.91265309      -0.73662615
C       -2.68538125       2.37813609       0.58496985
C        0.56685175      -0.82841991      -0.09303415
C        0.44062175       0.56231609       0.01516485
O       -1.47227225      -1.48328091       0.97446685
O       -1.98562025       1.08859909      -1.26809115
O        0.12027275      -2.95226691       0.60921385
C       -0.38343825      -1.68382791       0.50846685
C       -1.76061125       1.42151809      -0.12205615
O       -0.59046425       1.27818809       0.64580885
H       -0.66189625      -3.43437891       0.89896285
H        1.93156875      -2.45761091      -0.53809415
H        1.30507775       2.44017409      -0.39721615
H        3.86936175      -0.88127491      -0.97253115
H        3.42166275       1.57735509      -1.18611415
H       -3.84837825       2.24005509       0.41284685
H       -2.51721225       2.53048509       1.66129985
H       -2.46299225       3.33530209       0.06123085
