21
Properties=species:S:1:pos:R:3 -405684.73836123716=T pbc="F F F"
C        1.84303739      -1.18694683      -0.49764971
C        1.02425739       1.28170517      -1.64520971
C        2.47337739      -0.57631883      -1.58614471
C        2.21009639       0.67823617      -2.06516571
C       -3.02193161       1.42314517       0.63234029
C        0.81600139      -0.45662483       0.06113729
C        0.41710039       0.74605217      -0.53259871
O        0.41352239      -2.14941583       1.62572629
O       -2.13454261      -0.53832883      -0.37081471
O       -0.44175061      -0.04643083       2.20271229
C        0.21076539      -1.00299283       1.28763929
C       -1.95354361       0.63854117      -0.04621271
O       -0.74144861       1.32299117      -0.06979571
H       -0.72324161      -0.74270483       2.89669029
H        2.16642339      -2.19148083      -0.10648971
H        0.70524139       2.25098917      -1.93303371
H        3.41163039      -1.06796683      -1.89632571
H        2.62809039       0.94587517      -3.02972171
H       -3.71536661       0.70223817       0.89919529
H       -2.75535161       1.75500817       1.68192929
H       -3.48081161       2.35093317       0.01364129
