21
Properties=species:S:1:pos:R:3 -405675.4322257363=T pbc="F F F"
C        2.05629649      -0.96572570      -0.15231402
C        1.11780149       1.14141730      -1.82275502
C        2.96941949      -0.29572570      -0.92782702
C        2.45083449       0.72805830      -1.84988902
C       -2.94723851       1.40377030       0.70977798
C        0.73760149      -0.39268570       0.10600198
C        0.28466449       0.71029030      -0.76735402
O       -0.31981051      -0.03303670       2.16936298
O       -2.02924251      -0.64286970      -0.41002502
O       -0.08887951      -2.32395370       1.46339198
C       -0.04357551      -0.89795170       1.30881598
C       -1.99778051       0.53014330      -0.08926702
O       -1.03976851       1.34149230      -0.59756702
H       -0.57417751      -2.51360070       2.33605298
H        2.50295849      -1.73377270       0.46697798
H        0.70980249       1.72998130      -2.68578202
H        4.01749649      -0.45413670      -0.66259602
H        3.05908649       1.20358830      -2.58210002
H       -3.61358651       0.73162330       1.23014398
H       -2.50263051       1.92140430       1.57768298
H       -3.51039151       2.07808930       0.14941698
