21
Properties=species:S:1:pos:R:3 -405684.88105841924=T pbc="F F F"
C        2.09477383      -1.07423067      -0.33814261
C        1.02706783       1.16462933      -1.53348061
C        2.62014583      -0.55203267      -1.52807661
C        2.07737483       0.58386833      -2.14388761
C       -3.13738817       0.86480933       0.73619639
C        0.89498883      -0.51502267       0.25074939
C        0.38524683       0.62262233      -0.34153161
O        0.08947583      -2.28866367       1.71367139
O       -2.08550817       0.50132233      -1.48944661
O       -0.34825617      -0.22619767       2.40916939
C        0.31938483      -1.07709867       1.51147339
C       -1.98469517       0.88206533      -0.30051861
O       -0.76377417       1.24070133       0.17759239
H       -0.89596017      -0.80921967       2.95206639
H        2.46881883      -1.91933967       0.24019539
H        0.51987883       1.96090833      -1.98377161
H        3.44825483      -1.17986367      -2.02823061
H        2.69542783       1.03232533      -2.96036861
H       -2.98509717      -0.18382467       1.25961139
H       -2.99640617       1.65283933       1.56016639
H       -4.09015317       1.00016733       0.25101339
