21
Properties=species:S:1:pos:R:3 -405668.34172389784=T pbc="F F F"
C        1.60011881      -1.48258720      -0.81176584
C        0.82275581       1.05864080      -1.84651084
C        2.34985281      -0.88853420      -1.81829884
C        1.82267881       0.24763780      -2.32176184
C       -2.26406619       2.55920780       0.88903016
C        0.50886981      -0.80796220      -0.26192484
C        0.01493381       0.36997780      -0.95315884
O       -1.44067019      -1.34328720       0.88649516
O       -0.80397419       1.04374780       2.06026816
O        0.55812381      -1.97627820       1.69101816
C       -0.23640819      -1.46985120       0.76446316
C       -1.17926219       1.49457680       0.98455916
O       -0.90928419       1.18144380      -0.38765184
H       -0.06363919      -2.42921820       2.36612416
H        1.90003981      -2.47957320      -0.56243384
H        0.65425681       1.99082680      -2.40218684
H        3.05486581      -1.43883920      -2.36249184
H        2.32157181       0.49671380      -3.29362084
H       -2.21320819       3.03716880      -0.00940084
H       -3.18179419       2.05743380       1.06028416
H       -2.22800719       3.26144780       1.75467616
