21
Properties=species:S:1:pos:R:3 -405684.33537836105=T pbc="F F F"
C        1.97727930      -1.27992123      -0.28177250
C        1.71091130       1.52612677      -0.68123150
C        3.03343130      -0.56149123      -0.73601950
C        2.89390030       0.84457277      -0.98009950
C       -2.98430770       1.73716877       0.34751950
C        0.77786430      -0.67932823       0.09777850
C        0.58551830       0.77552177      -0.09514750
O       -0.89372870      -0.84370323       1.86054050
O       -2.13828470      -0.01506723      -0.82582450
O       -0.62516870      -2.48017323       0.27364150
C       -0.38861770      -1.25075923       0.85869950
C       -1.91779670       0.98658277      -0.21768450
O       -0.64090870       1.57044677       0.05303150
H       -0.97233570      -3.14783223       0.84689050
H        2.13425030      -2.33684523      -0.27544950
H        1.43393030       2.52139677      -1.10757850
H        3.99357130      -1.01084823      -1.00569050
H        3.67439130       1.42557777      -1.51714250
H       -3.91661970       1.42873677      -0.15789650
H       -3.04406370       1.38944377       1.34656050
H       -2.81752070       2.81154177       0.36229650
