21
Properties=species:S:1:pos:R:3 -405684.0172742395=T pbc="F F F"
C        1.95843406      -1.20040079      -0.45017460
C        0.72951706       1.00411721      -1.71714860
C        2.32801206      -0.84459179      -1.76309060
C        1.80185606       0.32739421      -2.32653060
C       -2.80271794       1.26474021       1.01540340
C        0.76762306      -0.58632679       0.21357240
C        0.16899706       0.50472121      -0.48772160
O        1.51113506      -1.33225179       2.40507040
O       -2.45339394       0.66632921      -1.41214860
O       -0.74743394      -1.12503279       2.14560340
C        0.57414106      -1.07595879       1.67237640
C       -2.09636694       1.09386521      -0.39550160
O       -0.80012094       1.30887821       0.05275640
H       -0.50819994      -1.41967279       3.08140640
H        2.42042606      -2.04823679      -0.00546960
H        0.22898906       1.92385721      -1.98353860
H        3.20878306      -1.30886979      -2.17851560
H        2.21465306       0.65529621      -3.31295760
H       -3.88471494       1.42947921       0.95146340
H       -2.54259394       0.42214221       1.61695840
H       -2.45660794       2.19162721       1.65354740
