21
Properties=species:S:1:pos:R:3 -405683.45836103836=T pbc="F F F"
C        2.03713012      -1.18463832      -0.35989367
C        0.68882412       1.15924168      -1.36166767
C        2.40742212      -0.59353532      -1.57216067
C        1.77375312       0.52642268      -2.08675667
C       -2.95912388       1.76244268       0.47206333
C        0.96447512      -0.54112732       0.24240933
C        0.23234112       0.54763968      -0.26103767
O        0.98806512      -2.21735432       1.92101433
O       -2.10552988       0.23533568      -1.34891567
O       -0.60122088      -0.52538232       2.05425333
C        0.43827612      -1.19725432       1.50597733
C       -1.98427788       0.89879868      -0.30607267
O       -0.81409888       1.16275968       0.32342733
H       -0.86247588      -1.03748032       2.85207933
H        2.69409112      -2.04079932       0.10268133
H        0.04612512       1.98699568      -1.83524967
H        3.15475812      -1.00299032      -2.22532567
H        1.85828512       0.67975768      -3.16289967
H       -2.81748388       1.82088768       1.57781333
H       -2.75137088       2.81960368       0.14651633
H       -3.97533388       1.70696568       0.10765233
