21
Properties=species:S:1:pos:R:3 -405690.92605760915=T pbc="F F F"
C        1.98358718      -1.06073209      -0.38023367
C        0.75126218       1.10382591      -1.43543167
C        2.55985018      -0.42671009      -1.45370367
C        1.89890018       0.68310791      -2.01451667
C       -3.12258182       2.16985991       0.07078233
C        0.88895218      -0.57159909       0.35593233
C        0.19939118       0.43895291      -0.24050867
O        1.22549218      -2.42107109       1.93151133
O       -2.27471182       0.40978791      -1.48892967
O       -0.47131882      -0.91850909       2.36706833
C        0.57365018      -1.39145709       1.60187933
C       -2.19133682       1.08452391      -0.48458367
O       -1.01253682       1.00910391       0.34431633
H       -0.62021582      -1.41682409       3.18031933
H        2.42690318      -1.97161609       0.13528233
H        0.15729218       1.79432991      -1.94048167
H        3.57361618      -0.68901009      -1.72123867
H        2.47973518       1.17164391      -2.80671167
H       -3.28139282       2.91760091      -0.72501667
H       -4.09334382       1.79611391       0.32552233
H       -2.61096482       2.71232991       0.89034133
