21
Properties=species:S:1:pos:R:3 -405678.7085167006=T pbc="F F F"
C        2.00084710      -1.01677894      -0.48279730
C        1.21137010       1.50307006      -1.22269630
C        2.58492410      -0.41237994      -1.54804430
C        2.12444710       0.79442706      -1.97160630
C       -3.12038690       1.69475406      -0.07753930
C        0.87885010      -0.53743194       0.20042170
C        0.43131510       0.79649506      -0.27173430
O       -0.02510190      -2.51373894       1.34556270
O       -2.14128890      -0.47406094      -0.41859230
O       -0.08114890      -0.48826594       2.40945670
C        0.24838510      -1.29851694       1.35943170
C       -2.06560690       0.69643306      -0.17206530
O       -0.83041090       1.44959706       0.03119870
H       -0.76434090      -0.93268494       2.88857870
H        2.28065710      -2.06067394      -0.17243130
H        0.63518510       2.43376906      -1.49766530
H        3.41191610      -1.05771494      -2.02835630
H        2.58420610       1.48437306      -2.72887130
H       -2.93735090       2.76014206       0.00934870
H       -3.77887290       1.68852106      -0.89829530
H       -3.71173690       1.41178606       0.83050970
