21
Properties=species:S:1:pos:R:3 -405683.216709982=T pbc="F F F"
C        2.07028684      -1.01262654      -0.22001208
C        0.85013184       1.11972246      -1.51556008
C        2.61115884      -0.51798154      -1.38037308
C        2.19874484       0.70687746      -1.85498208
C       -3.07872116       1.94201946       0.18732692
C        0.83928684      -0.54276154       0.33734192
C        0.18307084       0.45267046      -0.30615108
O       -0.88342016      -1.08883054       2.03292692
O       -2.25372916       0.32799546      -1.54861308
O        1.19695084      -1.98620654       2.19949792
C        0.26217984      -1.23349554       1.56609792
C       -2.16027516       0.96438646      -0.53440208
O       -0.88897216       1.05466846       0.20886592
H        0.72447684      -2.39052654       2.89307092
H        2.52282184      -1.79975954       0.45063092
H        0.50071384       2.17053146      -1.74382308
H        3.58223384      -0.94470654      -1.68256808
H        2.63152584       1.07374346      -2.73367408
H       -3.20836616       2.85220046      -0.36132908
H       -4.09402916       1.51106946       0.35652092
H       -2.71694616       2.01595546       1.21417892
