21
Properties=species:S:1:pos:R:3 -405696.38178232196=T pbc="F F F"
C        1.58177139      -1.41474383      -0.64450749
C        0.85440639       1.00450617      -1.88926049
C        2.45600839      -0.70840783      -1.57853349
C        2.03525639       0.41723217      -2.22932949
C       -2.51389261       1.68206717       1.23932951
C        0.38961539      -0.86062383      -0.30185449
C        0.09648439       0.39674417      -0.87929249
O       -1.22228661      -0.81147183       1.52271151
O       -0.10846761       1.92457317       1.40617251
O       -0.11517461      -2.69028983       1.01819051
C       -0.37974061      -1.41067283       0.81898251
C       -1.11203761       1.50278017       0.85137651
O       -1.07662761       1.00695917      -0.38396749
H       -0.57349861      -2.78239583       1.84274751
H        1.98774939      -2.29880183      -0.13897549
H        0.48969539       1.86698817      -2.46603849
H        3.44948639      -1.12591083      -1.89215049
H        2.72107539       0.88009917      -2.94451549
H       -3.18741161       1.41548617       0.46194751
H       -2.86819761       1.07915117       2.13151251
H       -2.56103961       2.76548817       1.38364251
