21
Properties=species:S:1:pos:R:3 -405683.67439549154=T pbc="F F F"
C        1.50251818      -1.46732697      -0.69099462
C        0.89716018       1.02587203      -1.99559562
C        2.15048718      -1.00942097      -1.82475962
C        1.89809218       0.14788503      -2.52659862
C       -2.56431182       1.60188203       1.16605538
C        0.47848818      -0.68345197      -0.12518762
C        0.25725818       0.63512903      -0.83241362
O       -1.57147382      -1.25945597       0.88457738
O       -0.23606682       1.60135903       1.73002538
O        0.31114318      -2.27952697       1.73703138
C       -0.32991382      -1.33607697       0.96341838
C       -1.09693882       1.64840503       0.89436838
O       -0.81623382       1.51176803      -0.49198762
H       -0.40121382      -2.90220097       2.01493038
H        1.86808518      -2.35451697      -0.26450662
H        0.67252418       2.04425203      -2.20768262
H        2.99514018      -1.72961497      -2.11156662
H        2.44526218       0.31195403      -3.49156662
H       -2.66274182       1.97483603       2.28615138
H       -3.32497582       2.12648303       0.47030438
H       -2.90553782       0.58514103       1.24581538
