21
Properties=species:S:1:pos:R:3 -405682.1054674415=T pbc="F F F"
C        1.96279870      -1.12326254      -0.35104251
C        0.72851470       1.19937646      -1.19156151
C        2.42807070      -0.52865554      -1.54455351
C        1.83554870       0.64681546      -1.92497451
C       -3.09923730       2.09744646      -0.08238051
C        0.79427170      -0.71194354       0.27882849
C        0.12397170       0.51653946      -0.22237051
O        1.30244470      -2.32724454       1.86667649
O       -2.21119130       0.41032746      -1.51500151
O       -0.38683730      -0.95213654       2.44879349
C        0.54037670      -1.34681554       1.63760749
C       -2.06427130       1.13848446      -0.53754151
O       -0.99313430       1.08256946       0.36300649
H       -0.51582330      -1.69621554       3.05504949
H        2.52260970      -1.87237554       0.12888049
H        0.09078770       2.06603346      -1.79301751
H        3.36150670      -0.77065054      -2.05680551
H        2.17117970       1.25261146      -2.73068551
H       -3.18660130       2.79863646      -0.89293851
H       -4.05012230       1.57236946       0.11578149
H       -2.76763930       2.52247446       0.85604749
