21
Properties=species:S:1:pos:R:3 -405675.8958958521=T pbc="F F F"
C        1.90726898      -1.22325705      -0.37679350
C        1.47434498       1.46550095      -0.83021750
C        2.94762898      -0.41116705      -0.73096850
C        2.74964498       0.86845695      -1.04352850
C       -2.80705902       1.86177295       0.57938150
C        0.70891298      -0.64351505       0.19191550
C        0.51936498       0.76659495      -0.07795350
O       -1.07951802      -1.07484805       1.87503350
O       -1.90502202       0.37016395      -1.28185150
O       -0.47842802      -2.64025705       0.28688150
C       -0.36673602      -1.47828805       0.86862350
C       -1.74802202       1.05221195      -0.24458050
O       -0.60641802       1.37155895       0.40788850
H       -1.21382502      -3.04606905       0.80121250
H        1.93056698      -2.31668405      -0.51165850
H        1.35841998       2.51203495      -1.01468150
H        3.98170698      -0.87983905      -0.83446950
H        3.47041598       1.56624195      -1.44601050
H       -2.98305202       1.48035795       1.56828050
H       -2.37319302       2.97730795       0.62590950
H       -3.70935602       2.13633995       0.18509350
