21
Properties=species:S:1:pos:R:3 -405684.35659016564=T pbc="F F F"
C        2.08226708      -0.87115527      -0.07444610
C        1.08642608       1.14887273      -1.70007110
C        2.93049908      -0.37068727      -1.00969810
C        2.42182608       0.66194173      -1.87767310
C       -3.08091192       1.33347873       0.56801490
C        0.71661308      -0.45048727       0.04952490
C        0.27860308       0.58500673      -0.71348210
O       -0.35929392      -0.07876627       2.12817990
O       -2.14032092      -0.62576227      -0.36244410
O       -0.01673092      -2.11455027       1.38602990
C        0.10352808      -0.78501227       1.27814790
C       -2.05596892       0.54677773      -0.14433410
O       -0.81552592       1.29290973      -0.38526310
H       -0.44020292      -2.19145827       2.30692490
H        2.45990908      -1.82820527       0.33619490
H        0.78045908       2.04079073      -2.19460910
H        3.84543108      -0.97220127      -1.15449910
H        2.98958608       1.37346173      -2.55511910
H       -3.93407892       0.61734673       0.75424990
H       -2.79551992       1.48371473       1.58749290
H       -3.40326592       2.28072573       0.16350990
