21
Properties=species:S:1:pos:R:3 -405685.80350776116=T pbc="F F F"
C        1.81780640      -1.29636134      -0.47142907
C        0.85874240       1.20451366      -1.36209907
C        2.37174740      -0.77382134      -1.60403107
C        1.95545640       0.54107466      -2.03460707
C       -2.97432760       1.66906566       0.67640793
C        0.88685240      -0.55873534       0.24864593
C        0.32775840       0.50933966      -0.35460507
O        1.10114140      -1.09743434       2.49645593
O       -2.16337560       0.52212266      -1.37073407
O       -0.82203260      -1.64613234       1.45758193
C        0.47269140      -1.17168134       1.47606593
C       -2.00544660       1.01981266      -0.29633807
O       -0.75999360       1.16556466       0.32731193
H       -0.94737360      -2.30368834       2.14513293
H        2.41211540      -2.13684834      -0.10388907
H        0.36831640       2.11532766      -1.76085807
H        3.12358340      -1.38185234      -2.20010607
H        2.35972340       1.09969366      -2.86717707
H       -2.72145860       2.80480766       0.78105993
H       -4.01491460       1.58825666       0.40869293
H       -2.80324260       1.35990566       1.72065393
