21
Properties=species:S:1:pos:R:3 -405686.77100984607=T pbc="F F F"
C        2.06840754      -1.02830210      -0.49659161
C        0.78891154       1.11686990      -1.58835661
C        2.57726154      -0.46935110      -1.71688561
C        1.97084354       0.65322090      -2.16032961
C       -2.99137146       1.87418390       0.46577239
C        0.91726754      -0.57623110       0.09201439
C        0.25993354       0.55491090      -0.46650161
O        0.41144754      -2.29697910       1.76921339
O       -2.23733846      -0.40239210      -0.46641061
O       -0.26759746      -0.21588510       2.15886039
C        0.32876154      -1.14399110       1.35029239
C       -2.02737246       0.79680890      -0.10307661
O       -0.75367846       1.20110890       0.19632939
H       -0.47272246      -0.72850210       2.94444939
H        2.58063054      -2.02713210      -0.18024361
H        0.38989254       2.03988390      -2.02820061
H        3.49473054      -0.78710710      -2.23885461
H        2.14686854       1.05845390      -3.16496561
H       -3.97681346       1.79741790       0.04389939
H       -2.74918946       1.75870390       1.54104139
H       -2.57582446       2.92128490       0.08103539
