21
Properties=species:S:1:pos:R:3 -405674.629050133=T pbc="F F F"
C        1.75061277      -1.34398185      -0.68987341
C        0.71877977       1.12352415      -1.42954641
C        2.02206277      -0.93021385      -1.98079141
C        1.38096977       0.37208815      -2.35387341
C       -3.06951023       1.32115315       0.61571259
C        0.91033977      -0.62450885       0.20589759
C        0.37806277       0.57957515      -0.22430841
O        1.52524377      -1.10525085       2.58484959
O       -2.01718123       0.38368715      -1.33000141
O       -0.72346323      -0.94347185       1.82713759
C        0.70945677      -0.99981885       1.67321059
C       -1.90880723       0.99868515      -0.25513641
O       -0.69182423       1.14797315       0.42082459
H       -0.94166323      -1.17567985       2.78330259
H        2.41518977      -2.04240385      -0.18663141
H        0.27897877       2.00711015      -1.83643941
H        2.72314277      -1.63031885      -2.51702841
H        1.48441677       0.67496215      -3.40126741
H       -3.88233623       1.56680315      -0.14939341
H       -3.38285523       0.56629115       1.35712159
H       -2.85998423       2.32762315       1.20913759
