21
Properties=species:S:1:pos:R:3 -405684.4374243773=T pbc="F F F"
C        1.97754081      -1.17603747      -0.27361396
C        0.83099481       1.18397053      -1.43446496
C        2.48633581      -0.54140947      -1.46484296
C        1.94678681       0.58577553      -2.04401196
C       -3.11801819       1.15156853       0.54309404
C        0.83141981      -0.55243847       0.28075904
C        0.36497281       0.70435453      -0.25320096
O        0.35670981      -2.33931747       1.66120304
O       -1.87682819       0.37579253      -1.50091596
O       -0.27226119      -0.28203647       2.37085304
C        0.34030781      -1.11742947       1.49636804
C       -2.01257519       0.88312653      -0.45112396
O       -0.81019019       1.24875253       0.22866604
H       -0.43762019      -0.84933547       3.15124004
H        2.41892281      -2.08499247       0.06935404
H        0.19849781       1.93051653      -1.78256996
H        3.40393381      -1.11187647      -1.82257696
H        2.16495881       0.94175253      -3.11618596
H       -3.23253319       0.18453553       1.07113604
H       -2.73241319       1.77654653       1.39253904
H       -3.91239319       1.67965353       0.11387504
