21
Properties=species:S:1:pos:R:3 -405685.34773141216=T pbc="F F F"
C        2.22545695      -0.97085547      -0.12906651
C        0.81589695       1.21153853      -1.49296851
C        2.72732895      -0.42654347      -1.34591051
C        2.01856195       0.60772653      -2.00184451
C       -3.07837005       1.28980053       0.64970349
C        0.95188895      -0.60736047       0.31824949
C        0.28561695       0.53219453      -0.34113051
O        0.04713495      -2.47131547       1.38495849
O       -2.13060205       0.92225653      -1.67627351
O       -0.13277205      -0.56589147       2.56545349
C        0.31412995      -1.30166447       1.46876449
C       -2.06791505       1.02993253      -0.45962951
O       -0.85549405       0.87594053       0.25847249
H       -0.66913605      -1.29564647       3.05977949
H        2.94107695      -1.69391047       0.25475349
H        0.22426295       1.92900453      -1.99333751
H        3.69035195      -0.81278547      -1.74023151
H        2.54882095       1.13198853      -2.86559651
H       -3.61970605       0.36370453       1.09789249
H       -2.59021705       1.67474253       1.53350749
H       -3.69533505       2.11682053       0.15423249
