21
Properties=species:S:1:pos:R:3 -405691.67074653984=T pbc="F F F"
C        2.03960415      -1.13680917      -0.38898057
C        0.97817115       1.19261883      -1.46897357
C        2.63732915      -0.58930717      -1.58985557
C        2.00411015       0.56994583      -2.13248857
C       -2.98974985       1.40163283       0.75325743
C        0.84328115      -0.56521117       0.18362343
C        0.32332815       0.59626883      -0.35080757
O        0.83825715      -1.95693417       2.16046243
O       -2.12646085       0.16717983      -1.22324957
O       -0.91466885      -0.62496117       1.83888443
C        0.28415915      -1.23366417       1.43796143
C       -1.99187485       0.89589283      -0.21318357
O       -0.76420485       1.34218883       0.13024043
H       -1.29335585      -1.00356417       2.67040543
H        2.50981515      -2.03065117      -0.02659457
H        0.44518615       1.95651083      -1.95539757
H        3.57183515      -1.02681317      -2.10446357
H        2.52757115       1.03137383      -3.00815557
H       -2.56037185       2.02941483       1.53951943
H       -3.83136285       2.00672583       0.42220343
H       -3.43530085       0.58778083       1.21895543
