21
Properties=species:S:1:pos:R:3 -405682.4172217992=T pbc="F F F"
C        1.96612783      -1.32075180      -0.05572725
C        1.37104883       1.36208120      -0.75835825
C        2.80796183      -0.57638680      -0.86802425
C        2.58748483       0.82310920      -1.16849625
C       -3.07356117       1.62546020       0.47473575
C        0.71131883      -0.79586280       0.28347875
C        0.43938183       0.54256220      -0.13902625
O       -1.29975817      -1.38934780       1.59598275
O       -1.58854117       2.23621420      -1.37445925
O        0.01588183      -3.04612080       0.68026575
C       -0.33372117      -1.72103580       0.87682275
C       -1.72319117       1.60209320      -0.31844325
O       -0.68038417       0.93330320       0.36935275
H       -0.70864417      -3.66306080       1.02542775
H        2.25839383      -2.34032480       0.31071575
H        1.06111583       2.35874220      -0.98691125
H        3.80474683      -0.94569880      -1.09528925
H        3.48771983       1.51813920      -1.25695625
H       -3.77563017       1.94299020      -0.31398625
H       -3.35226517       0.56593020       0.80256875
H       -2.98127217       2.30322320       1.26106475
