21
Properties=species:S:1:pos:R:3 -405677.6267391115=T pbc="F F F"
C        1.99462852      -1.24465172      -0.00904670
C        1.18059052       1.33434728      -0.98544070
C        2.94971352      -0.31071672      -0.37856270
C        2.51990752       0.89269828      -0.94826370
C       -2.60846748       2.38129528       0.63204930
C        0.68867152      -0.87752572       0.12318930
C        0.30960852       0.43873828      -0.27575670
O       -1.11542748      -1.47462972       1.53094130
O       -1.91472348       1.62578128      -1.57963170
O        0.01583252      -3.15230272       0.65527730
C       -0.18621348      -1.80952972       0.81367130
C       -1.83919848       1.55621828      -0.38280970
O       -0.84394448       0.89134328       0.37329530
H       -0.66005848      -3.60025572       1.29841330
H        2.34850852      -2.21986272       0.23612630
H        0.93689152       2.35804828      -1.24184870
H        3.89839152      -0.77237872      -0.56024470
H        3.42868352       1.52673428      -1.23291670
H       -2.08596348       2.97890428       1.42733030
H       -2.93310548       3.31820028       0.13040530
H       -3.34408648       1.78427528       1.19147530
