21
Properties=species:S:1:pos:R:3 -405691.7027724207=T pbc="F F F"
C        1.99938065      -1.05141282      -0.26737005
C        0.99617365       1.16903918      -1.64563305
C        2.57439165      -0.65293982      -1.47693005
C        2.10648165       0.51677518      -2.15581805
C       -3.12763935       1.48402718       0.60946695
C        0.85019565      -0.39032782       0.18544095
C        0.30654165       0.72541518      -0.44535605
O        0.30327565      -2.33801682       1.60748295
O       -2.09906635      -0.13162482      -0.95351205
O       -0.23831735      -0.32181682       2.38973195
C        0.27454865      -1.08192382       1.37270595
C       -2.08018935       0.77458818      -0.17961105
O       -0.76768135       1.41479818       0.04009795
H       -0.51295835      -0.86818982       3.18650895
H        2.48348665      -1.96938182       0.12475195
H        0.45606665       1.96149518      -2.22588905
H        3.46849965      -1.08764282      -1.85893605
H        2.45899365       0.89454618      -3.08293805
H       -4.17617335       1.24931918       0.39477695
H       -3.03113135       1.32949418       1.67427995
H       -3.11561335       2.55919718       0.50956795
