21
Properties=species:S:1:pos:R:3 -405682.14246099105=T pbc="F F F"
C        2.03475341      -1.24611196      -0.19939436
C        0.75527241       0.98820604      -1.54580336
C        2.61265041      -0.58756596      -1.32594736
C        1.98241441       0.50121504      -1.89661836
C       -3.25066259       1.49542004       0.42151664
C        0.77848241      -0.72769396       0.20759264
C        0.20004241       0.45594104      -0.37154136
O       -0.67760759      -2.02344896       1.88276264
O       -2.16677659       1.02865804      -1.74489236
O        1.27059541      -0.93220996       2.47395464
C        0.28079541      -1.32939696       1.60398764
C       -2.06933859       1.23871404      -0.54138836
O       -0.84904159       1.12343104       0.21972764
H        0.91547341      -1.23908296       3.33035064
H        2.31503741      -2.25424296       0.15082164
H        0.37500941       1.91561204      -2.13841136
H        3.48226441      -0.85739196      -1.89623736
H        2.43816441       0.78429004      -2.82085036
H       -2.91100959       1.78001904       1.49137064
H       -3.74795559       2.47267204       0.15364164
H       -3.99808459       0.76011904       0.22182364
