21
Properties=species:S:1:pos:R:3 -405682.34479477425=T pbc="F F F"
C        1.70887324      -1.22805226      -0.56282851
C        0.92019524       1.27294474      -1.55792151
C        2.61060124      -0.59567726      -1.42691851
C        2.16570524       0.64150074      -2.00443051
C       -3.05365676       1.32591274       0.75130049
C        0.76383524      -0.44089826       0.10556549
C        0.23692324       0.71135674      -0.50449351
O        0.30395724      -2.24972426       1.54631149
O       -2.04807476      -0.25370826      -0.88603951
O       -0.08655276      -0.09256626       2.40584749
C        0.24757724      -1.05085126       1.36761149
C       -2.01809276       0.70886774      -0.17075751
O       -0.77430176       1.37558874      -0.01796151
H        0.03660024      -0.66597226       3.17692749
H        1.93412724      -2.26395126      -0.15900551
H        0.46478824       1.98669874      -2.16625851
H        3.39883124      -1.11456126      -1.90552951
H        2.65827824       1.06346774      -2.79581251
H       -3.79532476       0.56019874       0.92957249
H       -2.62020176       1.53121774       1.81216549
H       -3.38409976       2.25577674       0.39298049
