21
Properties=species:S:1:pos:R:3 -405694.3655184745=T pbc="F F F"
C        1.92554009      -1.24685068      -0.36519857
C        0.93244009       0.98608132      -1.84403957
C        2.69869309      -0.66123868      -1.41104457
C        2.17690109       0.40348432      -2.15507157
C       -2.81711591       1.74747032       0.66757143
C        0.67532209      -0.75368468      -0.04774057
C        0.12942809       0.37102732      -0.84229957
O        0.18386009      -2.05883668       2.07317243
O       -0.52036891       1.95520632       1.33316443
O       -1.52605591      -1.57261368       0.65019843
C       -0.22951191      -1.57435268       1.07453643
C       -1.38679491       1.56402432       0.57173143
O       -1.09180391       0.85754132      -0.59193957
H       -1.86446491      -2.29541968       1.21451043
H        2.41696609      -2.03071268       0.20216343
H        0.63750109       1.97448132      -2.23801257
H        3.74523009      -0.92486968      -1.59601057
H        2.66034009       0.86744132      -2.97347657
H       -2.88036491       2.49494032       1.53068343
H       -3.27786491       2.12233232      -0.23672857
H       -3.42573091       0.83157032       0.92444343
