21
Properties=species:S:1:pos:R:3 -405688.2124856973=T pbc="F F F"
C        1.77221798      -1.20915388      -0.53858436
C        1.21307998       1.33475912      -1.49453236
C        2.48314998      -0.67403288      -1.67421736
C        2.20265498       0.59480812      -2.07765136
C       -3.01116702       1.92522212       0.27171864
C        0.77264798      -0.44555288       0.16425164
C        0.35312498       0.77450912      -0.44161636
O        0.53274498      -2.37014588       1.53245364
O       -2.12644402      -0.42239588      -0.00158136
O       -0.58282802      -0.47048988       2.15962564
C        0.25100298      -1.19719388       1.39881564
C       -1.97306402       0.83539412      -0.08665436
O       -0.77782702       1.47118812      -0.11509336
H       -1.08104102      -1.10162288       2.66675864
H        2.17182998      -2.14804088      -0.03719936
H        0.97180498       2.24626112      -1.96908036
H        3.12863798      -1.21855488      -2.31652736
H        2.74663898       1.05962412      -2.89175736
H       -2.89884102       2.75648312      -0.44082836
H       -4.05325602       1.54826812       0.32617064
H       -2.48318902       2.21096612       1.24257564
