21
Properties=species:S:1:pos:R:3 -405676.54857761826=T pbc="F F F"
C        1.82295199      -1.24062110      -0.62001467
C        0.84370699       1.27103890      -1.17420167
C        2.39139899      -0.52186710      -1.62169167
C        1.94165599       0.76699090      -1.92758167
C       -3.06971701       1.95399290       0.28002233
C        0.80253699      -0.78988310       0.18441033
C        0.30631499       0.46313090      -0.23756167
O        1.39471399      -1.85911210       2.27000233
O       -2.09988801       0.72205690      -1.55815267
O       -0.83147201      -1.37412210       1.95460533
C        0.44874799      -1.39171610       1.50394733
C       -2.08177701       1.06898890      -0.34565067
O       -0.86696201       1.01683390       0.50339033
H       -0.88158201      -2.09697410       2.62349433
H        2.29483899      -2.26006110      -0.46182667
H        0.42948299       2.26711790      -1.38053167
H        3.21901899      -0.90991410      -2.33190267
H        2.49840499       1.36905990      -2.67966967
H       -4.08780801       1.77762290      -0.09316767
H       -3.03972501       1.84636390       1.38031833
H       -2.83814101       2.90965390      -0.23339767
