21
Properties=species:S:1:pos:R:3 -405696.2460641354=T pbc="F F F"
C        1.76694824      -1.38657771      -0.64650834
C        0.70401224       1.00794329      -1.76226834
C        2.49081024      -0.66745471      -1.60258334
C        1.92619424       0.50807229      -2.18968934
C       -2.46600476       2.25367129       0.99540366
C        0.54487024      -0.88431271      -0.16801034
C        0.07327924       0.29140429      -0.72945434
O       -1.32176376      -1.10162871       1.41541566
O       -0.17910776       2.05896129       1.44223166
O       -0.04269476      -2.99112171       1.01284066
C       -0.33925976      -1.60738171       0.86773566
C       -1.08700076       1.84051029       0.66093466
O       -1.09755176       0.81853129      -0.29235534
H       -0.67572976      -3.46959771       1.53271366
H        2.16703024      -2.28909371      -0.20875834
H        0.23254624       1.95616129      -2.04838134
H        3.48986124      -0.99526571      -2.01625834
H        2.45996224       0.98836329      -2.97578734
H       -3.21068276       2.19123529       0.12744766
H       -2.93032776       1.55020629       1.75067666
H       -2.64568276       3.21084829       1.51786066
