21
Properties=species:S:1:pos:R:3 -405685.9825360095=T pbc="F F F"
C        1.73511801      -1.33877111      -0.57329551
C        1.28490301       1.28531489      -0.63616351
C        2.68622001      -0.63457411      -1.27622251
C        2.42626101       0.74958189      -1.38644651
C       -2.92285699       2.15826189       0.47819849
C        0.58203301      -0.86388211       0.07877449
C        0.38078201       0.52815289       0.10868049
O       -1.14253699      -2.50999311       0.41516449
O       -1.60117399       1.70100089      -1.37007851
O        0.24385701      -1.91797611       2.17644649
C       -0.16400199      -1.87819611       0.89410549
C       -1.63381999       1.70997089      -0.18219951
O       -0.73200999       1.15760489       0.67520449
H       -0.34831299      -2.60653111       2.59829649
H        1.95252401      -2.44359611      -0.48159551
H        0.93535701       2.31985489      -0.83579351
H        3.65355501      -1.13850211      -1.46240551
H        3.05723601       1.39975189      -1.95850651
H       -3.75812299       1.59789189      -0.07926451
H       -3.13242699       2.12632389       1.51549949
H       -3.15584899       3.22130489       0.30357849
