21
Properties=species:S:1:pos:R:3 -405691.0474629368=T pbc="F F F"
C        1.91282187      -1.34639773      -0.31699904
C        1.34071087       1.45485027      -0.78646504
C        2.73054987      -0.59958573      -1.09802504
C        2.36478087       0.73857927      -1.46352404
C       -3.01398513       1.97782827       0.42068696
C        0.76835687      -0.72969673       0.21595296
C        0.44296187       0.63175927      -0.00015904
O       -1.44289113      -1.48546473       0.89958396
O       -1.53074913       1.29142127      -1.45861104
O        0.36843587      -2.67051973       1.71684596
C       -0.23586113      -1.54319973       0.92117696
C       -1.78978013       1.41991127      -0.26829504
O       -0.74327913       1.12690327       0.68765196
H       -0.50164413      -2.95204373       2.01212196
H        2.11360087      -2.36088373       0.06478396
H        1.16670887       2.51262227      -1.05812104
H        3.64886787      -1.01938773      -1.46973604
H        2.88814087       1.20231527      -2.27787804
H       -3.30188813       2.83899927      -0.15106804
H       -3.93261313       1.32524427       0.40054396
H       -2.76379413       2.16919727       1.47685396
