21
Properties=species:S:1:pos:R:3 -405693.24572239356=T pbc="F F F"
C        2.09026136      -1.02571400      -0.37630028
C        0.37935836       0.73136100      -1.68447528
C        2.44958436      -0.63328800      -1.66158328
C        1.56520836       0.29825900      -2.25284328
C       -3.01484764       1.92461100       0.65886772
C        1.00212536      -0.56217200       0.31902972
C        0.11182236       0.41111800      -0.31158928
O        1.56917736      -1.64809200       2.43580172
O       -2.19021664       1.07897000      -1.56897028
O       -0.65451864      -1.43136100       1.91975672
C        0.73015736      -1.19669100       1.68701472
C       -2.11017864       1.28092900      -0.38800128
O       -0.93231164       0.86881100       0.37376972
H       -0.52342564      -2.01717400       2.66684672
H        2.58331436      -1.83174800       0.09880972
H       -0.28279864       1.34851100      -2.28651728
H        3.31935936      -0.98173000      -2.22634628
H        1.73884136       0.49308900      -3.38427228
H       -3.36712864       2.91185600       0.26726072
H       -3.92749264       1.35924200       0.74962572
H       -2.64359964       2.05190600       1.70237972
