21
Properties=species:S:1:pos:R:3 -405687.54387071985=T pbc="F F F"
C        1.95495691      -1.31311322      -0.28706035
C        1.24907691       1.54428478      -0.50655835
C        2.77669891      -0.35627022      -1.02381135
C        2.39032491       0.98748678      -1.16756835
C       -2.69050709       2.25799478       0.50584565
C        0.77589791      -0.78023122       0.34081865
C        0.52040991       0.52566678       0.13780565
O       -1.46652709      -1.50275422       0.66027865
O       -1.55979809       1.28920578      -1.39259035
O        0.04253991      -3.00395822       1.15882765
C       -0.31379509      -1.76203522       0.82524465
C       -1.63660809       1.47681878      -0.24579735
O       -0.77104509       0.98641978       0.68696265
H       -0.85046009      -3.40985422       1.27728765
H        2.16258991      -2.40199122      -0.01771735
H        0.83170491       2.58459578      -0.64729135
H        3.50791591      -0.80477522      -1.65255735
H        3.04534291       1.60887678      -1.79102235
H       -3.09347709       3.05939978      -0.06765235
H       -3.50663409       1.47864178       0.65928365
H       -2.35424009       2.56728778       1.48852665
