21
Properties=species:S:1:pos:R:3 -405681.86137045117=T pbc="F F F"
C        2.18504292      -1.15046507      -0.28250970
C        0.92156692       1.12527793      -1.41734570
C        2.65079092      -0.58952407      -1.46529070
C        1.99715692       0.44794993      -2.08833870
C       -3.08092008       1.68993593       0.73389830
C        0.92465092      -0.58970907       0.23312130
C        0.30304592       0.54117493      -0.30676870
O        1.17805992      -1.85532307       2.19198330
O       -2.33611908       0.93350193      -1.48371070
O       -0.97436708      -1.23154207       1.63618630
C        0.43296192      -1.28882307       1.44843230
C       -2.15053508       1.13356993      -0.29192570
O       -0.89917508       0.96891093       0.33136130
H       -0.81326708      -1.84220607       2.39846330
H        2.44847792      -2.21366107       0.08130930
H        0.46861592       1.97758993      -1.92045770
H        3.51428392      -0.90374307      -2.04039170
H        2.38341292       0.63848293      -3.14021970
H       -3.87548108       2.22010493       0.21714530
H       -3.42292408       0.97235393       1.40681730
H       -2.40473408       2.23947693       1.45064930
