21
Properties=species:S:1:pos:R:3 -405693.6061349439=T pbc="F F F"
C        1.87962957      -1.19618842      -0.43232104
C        0.86192457       1.21005158      -1.53655504
C        2.37689657      -0.72246542      -1.65051204
C        1.94667457       0.52719858      -2.18865504
C       -2.97682343       1.23658658       0.84450696
C        0.83428057      -0.49760442       0.18687296
C        0.34698657       0.72891158      -0.33385504
O        0.97122857      -2.06240942       1.96564196
O       -2.20038343       0.13465658      -1.24722604
O       -0.56184743      -0.34721642       2.14407196
C        0.40456457      -1.06459342       1.47556796
C       -1.98889043       0.76694658      -0.22194704
O       -0.80513743       1.34220958       0.11014296
H       -0.63295443      -0.72357342       3.06394696
H        2.04473457      -2.16603942      -0.05018204
H        0.29167557       2.06218358      -1.99061304
H        3.14799557      -1.23541442      -2.12366904
H        2.22114257       0.87778058      -3.19485204
H       -3.94359343       1.43466958       0.20794396
H       -3.26216443       0.62558358       1.58931996
H       -2.54377343       2.15439658       1.24371296
