21
Properties=species:S:1:pos:R:3 -405688.139379398=T pbc="F F F"
C        2.21955018      -0.89967969      -0.00834656
C        0.82114118       0.91347131      -1.66824556
C        2.71912018      -0.62495469      -1.29754656
C        2.01724318       0.32398631      -2.08199956
C       -3.23730482       1.62130431       0.54768544
C        0.87970618      -0.51031469       0.29973844
C        0.28583218       0.55934831      -0.43456856
O       -0.92529782      -1.43800569       1.59386144
O       -2.25310682       0.40889731      -1.37819856
O        1.10949818      -1.49574169       2.39718944
C        0.25060218      -1.07470069       1.39555544
C       -2.09847382       1.04149431      -0.35211156
O       -0.76596382       1.32865031       0.15959744
H        0.39348718      -1.80569569       3.03596144
H        2.72572918      -1.70259269       0.56960344
H        0.24563718       1.74039931      -2.19630856
H        3.61792318      -1.05839469      -1.75890956
H        2.45625118       0.42035831      -3.05019656
H       -3.11063882       1.18132231       1.58886744
H       -3.10377782       2.71972231       0.53927844
H       -4.16276082       1.41575831       0.13358044
