21
Properties=species:S:1:pos:R:3 -405694.54010288586=T pbc="F F F"
C        1.77210225      -1.31491075      -0.53508960
C        0.82525425       1.01007025      -1.74087360
C        2.47517725      -0.70862275      -1.59304160
C        1.90459325       0.44223025      -2.24282360
C       -2.48109575       2.17822625       1.29281340
C        0.50015625      -0.83390375      -0.11705660
C        0.06928025       0.34129325      -0.72822160
O       -1.14339175      -0.94490875       1.54123640
O       -0.14083275       1.93237725       1.23156440
O       -0.09379475      -2.93252675       0.89307040
C       -0.36768175      -1.57405375       0.81353840
C       -1.18814375       1.64703925       0.70581340
O       -1.23764875       0.84230825      -0.46662360
H       -0.62228875      -3.40227175       1.50537640
H        2.21570325      -2.25863175      -0.18470260
H        0.45216925       1.92673425      -2.24536860
H        3.52998225      -0.98901275      -1.86934260
H        2.49716125       1.00003625      -2.92000560
H       -3.08060875       2.52358625       0.50133740
H       -2.99087375       1.43421225       1.89077340
H       -2.27740375       3.12899925       1.90065840
