21
Properties=species:S:1:pos:R:3 -405677.4273438572=T pbc="F F F"
C        2.26111870      -0.84328728      -0.10632548
C        0.47975970       0.57237772      -1.72132148
C        2.71509970       0.01641972      -1.13071348
C        1.80444270       0.48660872      -2.11385148
C       -2.99816130       1.48833472       0.63166352
C        0.85793570      -0.82937028       0.17723852
C        0.00527570      -0.06217728      -0.56110348
O        1.31229270      -1.97718328       2.29438452
O       -1.73042830       2.25820472      -1.23233048
O       -0.91368630      -1.38601128       1.82761352
C        0.42972170      -1.51520928       1.49346852
C       -1.90074930       1.50396472      -0.29609048
O       -1.28675330       0.24547372      -0.13540648
H       -1.01593030      -1.72502928       2.70792252
H        2.99607370      -1.37720428       0.63596152
H       -0.14779530       0.96644172      -2.49660148
H        3.76433970       0.31953372      -1.12264748
H        2.26831070       0.90205372      -3.05511848
H       -2.80591430       2.42539572       1.31855252
H       -3.96560930       1.74599772       0.22941952
H       -3.04761730       0.64820072       1.25687752
