21
Properties=species:S:1:pos:R:3 -405689.51320025045=T pbc="F F F"
C        1.76902623      -1.34888958      -0.47404231
C        1.42873223       1.36260742      -0.50804531
C        2.67757623      -0.57289758      -1.28563731
C        2.44883623       0.81187542      -1.35890131
C       -3.10370177       1.58873442       0.30511069
C        0.68889923      -0.76755258       0.19672869
C        0.40260723       0.57469742       0.10631469
O       -1.47440077      -1.52977058       0.94455369
O       -1.37179877       1.88954542      -1.35565831
O        0.40517823      -2.70296958       1.48975469
C       -0.25707977      -1.62966458       0.94946669
C       -1.67269777       1.57889942      -0.24228131
O       -0.79550077       1.01771442       0.71995669
H       -0.20878277      -3.33674058       1.96207269
H        1.69722123      -2.42995558      -0.58760331
H        1.37575123       2.45698142      -0.47254431
H        3.49631523      -1.05724658      -1.74943931
H        3.11879923       1.48094742      -1.90989331
H       -3.77267877       2.32027542      -0.21671731
H       -3.45487477       0.63973142       0.47204669
H       -3.06387777       1.93749442       1.47697869
