21
Properties=species:S:1:pos:R:3 -405693.90105121187=T pbc="F F F"
C        2.15013521      -0.89180172      -0.11870868
C        0.78563721       0.92084028      -1.66683668
C        2.77376921      -0.41574172      -1.31621768
C        2.06216021       0.43418028      -2.16598068
C       -3.01969879       1.65303228       0.68402632
C        0.87938521      -0.46764272       0.30474332
C        0.28663421       0.57233928      -0.50315768
O        0.96172521      -2.31980572       1.94143732
O       -2.44537079       0.46654028      -1.35249668
O       -0.70903179      -0.76753272       2.02562832
C        0.36629721      -1.31071572       1.49955232
C       -2.10405879       1.01644728      -0.29921668
O       -0.80815079       1.26099628       0.15727732
H       -1.00463279      -1.33615672       2.79327032
H        2.56607221      -1.73384272       0.39846832
H        0.20899821       1.59331028      -2.36655668
H        3.70998221      -0.84580472      -1.65261368
H        2.37247421       0.57997728      -3.17422768
H       -3.24617079       2.70234028       0.42701432
H       -4.01595779       1.15598428       0.46857432
H       -2.73909479       1.47476028       1.76269132
