21
Properties=species:S:1:pos:R:3 -405685.3115912357=T pbc="F F F"
C        2.12780482      -1.23669108      -0.09764943
C        0.96746482       1.07789392      -1.28071043
C        2.73017982      -0.68692908      -1.25238843
C        2.16625882       0.48027792      -1.75999443
C       -3.04759218       1.95615192       0.63702757
C        0.82165782      -0.70199808       0.26163957
C        0.26890982       0.45024992      -0.30277443
O       -0.97785018      -2.17706008       0.86633957
O       -1.82080818       1.92589992      -1.46848043
O        0.61836582      -1.80922808       2.35740757
C        0.02343582      -1.56556708       1.19475757
C       -1.94288218       1.58392092      -0.25805443
O       -0.89984118       0.80735192       0.39955257
H        0.07111482      -2.56278008       2.84703657
H        2.50017982      -2.08183008       0.54691857
H        0.69386582       2.06635192      -1.54812043
H        3.71997182      -0.90623008      -1.71346443
H        2.71987082       1.01506192      -2.61035343
H       -2.75751718       2.03973292       1.64624757
H       -3.28385118       2.97463392       0.17995357
H       -3.77910418       1.18040692       0.48470057
