21
Properties=species:S:1:pos:R:3 -405691.7410662109=T pbc="F F F"
C        1.75153811      -1.33255373      -0.48931530
C        1.52380711       1.44212027      -0.28227630
C        2.72846811      -0.50388873      -1.13096330
C        2.54355011       0.83608627      -1.00691730
C       -3.01365989       1.64585827       0.45503170
C        0.61600411      -0.76508373       0.09696670
C        0.47657911       0.62164027       0.17661470
O       -1.55634989      -1.40584173       0.90050170
O       -1.31324089       1.73506927      -1.30696330
O        0.11588411      -2.96289173       0.98077870
C       -0.38027389      -1.66479373       0.72479270
C       -1.61532489       1.42316527      -0.17284130
O       -0.68273489       1.20841127       0.72513570
H       -0.79223989      -3.38973173       0.97430970
H        1.82425511      -2.45812273      -0.51198730
H        1.52523011       2.53755927      -0.04860630
H        3.41141211      -1.01772573      -1.82503930
H        3.33250611       1.43182127      -1.41533530
H       -3.72800389       1.36288127      -0.35528930
H       -3.29441689       1.20493327       1.41752070
H       -2.87673089       2.67620727       0.53629270
