21
Properties=species:S:1:pos:R:3 -405688.0469090733=T pbc="F F F"
C        2.16784521      -0.82052931      -0.07692521
C        0.78799921       0.93718569      -1.79127021
C        2.78720421      -0.38901131      -1.35830221
C        2.07243521       0.51375569      -2.19082421
C       -3.10385879       1.29438469       0.34863879
C        0.89306121      -0.32464731       0.29250679
C        0.29466321       0.65935969      -0.53658821
O       -0.23146879      -0.00189731       2.40344879
O       -2.12875779      -0.50707231      -0.91493321
O        0.30020521      -2.08734231       1.97952479
C        0.26600421      -0.78698631       1.57632479
C       -2.08144779       0.53174469      -0.37703521
O       -0.88481279       1.23442069      -0.21842621
H       -0.57414279      -2.18352731       2.50563579
H        2.69561721      -1.51282931       0.48450079
H        0.22356121       1.51474069      -2.44359121
H        3.78102621      -0.80066931      -1.64352221
H        2.28620321       0.87803869      -3.16299821
H       -3.74823979       1.88732969      -0.34681321
H       -3.86862879       0.66078969       0.86037179
H       -2.68510979       1.93774969       1.15112179
