21
Properties=species:S:1:pos:R:3 -405690.7014326863=T pbc="F F F"
C        1.95785516      -1.23648542      -0.15660193
C        1.23100316       1.40188958      -0.96112793
C        2.89256216      -0.39075642      -0.75699193
C        2.55446616       0.83030758      -1.29643193
C       -2.84249984       2.07392658       0.60177007
C        0.66460716      -0.77909342       0.15892807
C        0.40323016       0.61935558      -0.18830193
O       -1.19206284      -1.28315842       1.62510807
O       -1.82656984       0.87245058      -1.32547493
O        0.00957716      -2.95723442       0.67696507
C       -0.23931984      -1.66409442       0.94898007
C       -1.79708984       1.39532658      -0.23904193
O       -0.64351984       1.40213858       0.44884007
H       -0.74902884      -3.50649542       1.05404807
H        2.28019616      -2.13417342       0.37612707
H        1.10019316       2.45359958      -1.16414993
H        3.94186516      -0.77795142      -0.91366293
H        3.14272216       1.54984658      -1.81689093
H       -3.18445884       2.88039858      -0.07484493
H       -3.62995084       1.41525958       0.79820707
H       -2.38075484       2.52340258       1.60827607
