21
Properties=species:S:1:pos:R:3 -405675.9197243507=T pbc="F F F"
C        1.84985949      -1.32054822      -0.18457404
C        1.56202749       1.54018178      -0.41620604
C        2.88772049      -0.52073022      -0.63593804
C        2.69536749       0.83784778      -0.91573004
C       -2.91371151       1.85711378       0.44719796
C        0.63360849      -0.68080422      -0.02030604
C        0.53422149       0.69414978      -0.00152404
O       -1.21375751      -1.07699222       1.54001896
O       -1.66388551       0.75996278      -1.27606404
O       -0.41507251      -2.82588622       0.23387896
C       -0.51673451      -1.45565722       0.57445696
C       -1.63506751       1.30001078      -0.23138204
O       -0.53560051       1.24234978       0.57542196
H       -1.28963551      -3.26430422       0.52296596
H        2.01057049      -2.38570222       0.11661996
H        1.57229549       2.54932878      -0.37603304
H        3.90535149      -0.66269322      -1.08189804
H        3.57482749       1.26183878      -1.31671004
H       -3.45396151       0.97108778       0.80217296
H       -2.72189751       2.63466278       1.14172296
H       -3.53197251       2.25015478      -0.36307504
