21
Properties=species:S:1:pos:R:3 -405693.3210847298=T pbc="F F F"
C        1.64203943      -1.40108191      -0.60436860
C        0.94507143       1.08011309      -1.74271260
C        2.30765943      -0.94014791      -1.73307460
C        1.97568543       0.27497909      -2.26756160
C       -2.72006457       2.02070209       1.08165140
C        0.54251943      -0.73693691      -0.09554360
C        0.22372143       0.53208109      -0.67270560
O       -1.34426157      -1.06435991       1.38350240
O       -0.25542157       1.91557809       1.54448240
O        0.18651443      -2.82651991       1.00265340
C       -0.35638457      -1.55011191       0.82766940
C       -1.13783557       1.71579209       0.79240640
O       -1.09663057       1.12118909      -0.45573460
H       -0.43579257      -3.19786391       1.59481840
H        2.00822143      -2.34509791      -0.21157360
H        0.79067243       2.09849709      -2.12068060
H        3.01534643      -1.61275791      -2.17223160
H        2.67085343       0.57879409      -3.07565860
H       -2.80659757       2.63626809       2.04690740
H       -2.95623057       2.51486709       0.11946540
H       -3.20420857       1.03075609       1.22930440
