21
Properties=species:S:1:pos:R:3 -405682.22518322704=T pbc="F F F"
C        2.07889867      -1.03743213      -0.34112541
C        0.80695667       1.03061587      -1.61608541
C        2.54447667      -0.64176513      -1.67429741
C        1.87881067       0.43261587      -2.30060441
C       -3.14727133       1.41166987       0.72699959
C        0.93773467      -0.50607713       0.27277359
C        0.36963667       0.60371787      -0.24277441
O        0.77043567      -2.22939113       1.98185359
O       -2.12075633       0.25493087      -1.17897441
O       -0.72529733      -0.46881913       2.01620359
C        0.36725867      -1.11964313       1.49050959
C       -1.97399833       0.98287287      -0.20233441
O       -0.67255033       1.35054587       0.23620059
H       -0.77325833      -1.07429313       2.78749859
H        2.70277667      -1.76318313       0.08521359
H        0.35586767       1.93138187      -2.16822741
H        3.41480067      -1.08230913      -2.18915641
H        2.18954367       0.86141987      -3.24542041
H       -3.03678933       2.55646687       1.03266559
H       -3.95122133       1.45622087      -0.03109441
H       -3.27645533       0.68563087       1.52006959
