21
Properties=species:S:1:pos:R:3 -405690.36990017514=T pbc="F F F"
C        1.85918807      -1.24256205      -0.45927056
C        0.92233207       1.15694495      -1.57987756
C        2.50853607      -0.67415305      -1.51052456
C        2.08565307       0.54696595      -2.05924956
C       -2.90098993       1.77223495       0.69964544
C        0.72623007      -0.62026105       0.12284244
C        0.26518607       0.53775695      -0.50367856
O        1.24456707      -1.63663105       2.08706344
O       -2.34720193       0.17122995      -1.07864756
O       -0.94842493      -1.12659505       1.95315044
C        0.36043607      -1.16555705       1.43705744
C       -2.02228793       0.92034995      -0.15292056
O       -0.72776193       1.37583895       0.09072544
H       -0.68455293      -1.16515805       2.89897444
H        2.26957407      -2.17710305      -0.04496356
H        0.54939007       2.17321095      -1.71856356
H        3.44538107      -0.95104505      -1.98195656
H        2.54925407       0.95399795      -2.91503956
H       -4.00533993       1.73966695       0.54514344
H       -2.85219093       1.30928595       1.64416444
H       -2.46655193       2.75256795       0.82862544
