21
Properties=species:S:1:pos:R:3 -405683.05927997216=T pbc="F F F"
C        1.85870950      -1.29744038      -0.27156944
C        1.57253450       1.50394862      -0.40273044
C        2.81388550      -0.44599238      -0.81614844
C        2.75292250       0.96398362      -0.79606944
C       -2.89101650       1.72986762       0.64095956
C        0.53146150      -0.75040038       0.04332556
C        0.53665150       0.67692562       0.00553956
O       -1.03192950      -1.35754038       1.79376756
O       -1.74943750       0.92895062      -1.42276944
O       -0.44372050      -2.79427038       0.06052656
C       -0.43649250      -1.58495138       0.75857956
C       -1.69364650       1.36584562      -0.25974744
O       -0.57660250       1.42823362       0.42032756
H       -0.93226850      -3.48949338       0.47323956
H        2.04448350      -2.40809038      -0.22125744
H        1.33200750       2.57438562      -0.49805744
H        3.72603550      -0.99690438      -1.01570644
H        3.51371650       1.60837762      -1.24266044
H       -2.79535550       2.73647662       1.13415956
H       -3.66824150       1.85834162      -0.23925744
H       -2.95486150       0.85890862       1.16206856
