21
Properties=species:S:1:pos:R:3 -405687.15957896697=T pbc="F F F"
C        1.89426832      -1.05518098      -0.27820425
C        1.05339732       1.35704602      -1.61590825
C        2.54380432      -0.58594598      -1.38989625
C        2.09722832       0.57847502      -2.12083225
C       -3.16254368       1.49209002       0.48000975
C        0.72893532      -0.43231498       0.15548975
C        0.34424732       0.77816402      -0.56006225
O        0.13091932      -2.32847598       1.45849775
O       -1.96247668      -0.47324698      -0.50023925
O        0.05681332      -0.20211498       2.39525775
C        0.27009932      -1.11466998       1.36505575
C       -2.03056568       0.69511502      -0.20893325
O       -0.89815568       1.46139202      -0.10070625
H       -0.52085668      -0.67039198       3.02449175
H        2.27238832      -2.03180598       0.08672775
H        0.53434532       2.20814902      -2.02040925
H        3.42311132      -1.11757098      -1.72107325
H        2.65988432       0.78151402      -3.05106125
H       -3.59011468       1.02179602       1.41162175
H       -2.81076468       2.51089902       0.54008575
H       -4.06522968       1.38339102      -0.20429325
