21
Properties=species:S:1:pos:R:3 -405683.6193279336=T pbc="F F F"
C        1.95389387      -1.03149719      -0.45886339
C        1.01119587       1.12132681      -1.67201339
C        2.81413387      -0.51088519      -1.37206839
C        2.24375287       0.65273581      -1.97364139
C       -3.11145113       1.73657681       0.42927061
C        0.76997987      -0.42172719       0.02443361
C        0.21670587       0.67726581      -0.66184539
O        0.54733487      -2.30598019       1.52407861
O       -2.26193513      -0.42293919      -0.07219739
O       -0.43573113      -0.43216019       2.22611061
C        0.26639287      -1.13712219       1.36887561
C       -2.08111013       0.77417381      -0.06836539
O       -0.80924813       1.42758681      -0.23187639
H       -0.94913613      -0.97952319       2.87689761
H        2.28463387      -1.96131119       0.06285661
H        0.60796487       1.98644381      -2.24250339
H        3.66269687      -1.00173219      -1.79474039
H        2.73387287       1.19585381      -2.74517939
H       -3.39433213       1.70199981       1.51359861
H       -2.72133013       2.80014381       0.17094461
H       -3.87515613       1.61312381      -0.33210039
