21
Properties=species:S:1:pos:R:3 -405687.2377914538=T pbc="F F F"
C        1.92179653      -1.17710009      -0.29663644
C        1.49775153       1.45259391      -0.50778244
C        2.92208553      -0.39918609      -0.82230844
C        2.74979253       0.97421891      -0.89701744
C       -2.62442547       2.21092491       0.69489456
C        0.67656353      -0.72098809       0.09661056
C        0.43978853       0.59947591      -0.06316844
O       -1.49777847      -1.29623309       1.23754056
O       -1.99120847       0.75432291      -1.28269544
O       -0.01886547      -2.87311809       0.39957856
C       -0.40542247      -1.61450109       0.79523056
C       -1.79818047       1.28386491      -0.21682244
O       -0.64319147       1.15391191       0.52359556
H       -0.63799147      -3.55641009       0.81996256
H        2.04646353      -2.29158309      -0.16489344
H        1.35864053       2.54615691      -0.32623744
H        3.82721753      -0.84451009      -1.26043844
H        3.45619353       1.71530991      -1.19778044
H       -2.43368447       1.67048791       1.61763056
H       -2.17261747       3.30615991       0.62967556
H       -3.61990147       2.27141991       0.43788856
