21
Properties=species:S:1:pos:R:3 -405686.72113075375=T pbc="F F F"
C        2.20234018      -0.90866075      -0.20656831
C        0.68740718       0.92593525      -1.52485331
C        2.50866718      -0.58153575      -1.56997631
C        1.71240818       0.31756825      -2.24492531
C       -3.06673482       2.09617225       0.33148869
C        1.02110418      -0.43245375       0.45938969
C        0.25648518       0.50542125      -0.26305231
O        1.26043318      -2.24306475       1.96662569
O       -2.40469482       0.40604425      -1.25282631
O       -0.69036682      -0.98766975       1.98749169
C        0.57752018      -1.25033175       1.59917469
C       -2.12377482       1.05675325      -0.26846231
O       -0.84719882       1.24133125       0.28092169
H       -0.81136582      -1.82605175       2.46258469
H        2.76249518      -1.73818075       0.14814569
H       -0.01032882       1.67400025      -1.93727031
H        3.37724218      -1.08900175      -2.03229931
H        1.90253218       0.51515525      -3.42440531
H       -4.04922482       1.83628825      -0.15139031
H       -2.84995682       2.08402825       1.50588969
H       -2.71215782       3.08748025       0.00868669
