21
Properties=species:S:1:pos:R:3 -405689.2518495513=T pbc="F F F"
C        1.84555059      -1.12819688      -0.48454542
C        1.16870159       1.42805312      -1.29058642
C        2.61266659      -0.53275788      -1.57891742
C        2.27143859       0.76724912      -1.95474042
C       -3.17799141       1.63862312       0.10974858
C        0.78020659      -0.45162088       0.15957458
C        0.38820059       0.79920912      -0.30037542
O        0.31604659      -2.41072288       1.45519458
O       -2.24005141      -0.44744188      -0.42879642
O       -0.23159541      -0.32391888       2.32233458
C        0.30693359      -1.20354888       1.37004358
C       -2.03878541       0.69809312      -0.18136742
O       -0.81504441       1.31956012      -0.03813742
H       -0.85712441      -0.69515188       2.95282358
H        2.00959959      -2.06691288       0.01160358
H        0.81762659       2.42621212      -1.75489242
H        3.29325659      -1.03403488      -2.30519342
H        2.83689059       1.38554012      -2.65325042
H       -3.98176241       1.40501412      -0.48537042
H       -3.47705741       1.44594312       1.14890458
H       -2.99089341       2.69950312      -0.02895542
