21
Properties=species:S:1:pos:R:3 -405685.3272923448=T pbc="F F F"
C        2.16189741      -0.88741310      -0.16367358
C        0.99095241       1.04412790      -1.72608158
C        2.87499841      -0.36654210      -1.32775358
C        2.21193741       0.57846790      -2.08640058
C       -3.15139459       1.62939490       0.18081042
C        0.90948741      -0.32488710       0.23352342
C        0.27065841       0.59719990      -0.62432058
O       -0.44783659      -0.09052910       2.14220342
O       -2.21684859      -0.73615710      -0.16460558
O        0.35744841      -2.06748710       1.74858142
C        0.22527741      -0.77713510       1.46761242
C       -2.11640359       0.47975490      -0.06263558
O       -0.97475759       1.17907290      -0.44884258
H        0.28014541      -2.18384210       2.65513142
H        2.78175541      -1.59476510       0.39479042
H        0.45040841       1.84435090      -2.12131458
H        3.84229941      -0.72840510      -1.74672958
H        2.61727741       1.00950090      -3.02514358
H       -2.63216759       2.40424490      -0.41275258
H       -4.14322059       1.15751290      -0.05907058
H       -3.22994559       1.81949690       1.22557442
