21
Properties=species:S:1:pos:R:3 -405687.4568406343=T pbc="F F F"
C        1.87221321      -1.25848255      -0.19474002
C        1.18370821       1.41648445      -0.70290902
C        2.64852121      -0.45958355      -1.02360702
C        2.44129121       0.93475745      -1.16382602
C       -3.04979579       1.87510545       0.10907998
C        0.62843121      -0.87809855       0.26568198
C        0.37537821       0.53694245       0.11061798
O       -1.09697579      -1.54171455       1.75590298
O       -1.22125079       2.04882945      -1.49492702
O        0.08479321      -3.22519855       0.77235698
C       -0.21196279      -1.87078155       1.00456498
C       -1.70959279       1.67859045      -0.42986202
O       -0.83817679       1.02233345       0.60270298
H       -0.54300279      -3.61176455       1.40904098
H        2.17519021      -2.31082255      -0.22042802
H        0.89872421       2.44037845      -0.79398502
H        3.67090521      -0.70686355      -1.27852602
H        2.95975121       1.63868245      -1.77297202
H       -2.95189879       2.78545345       0.63897198
H       -3.81889979       2.08141045      -0.60320202
H       -3.39110179       1.08111045       0.76734098
