21
Properties=species:S:1:pos:R:3 -405691.96289456415=T pbc="F F F"
C        2.10198191      -1.11400021      -0.42890472
C        0.66248291       0.90156879      -1.57376872
C        2.54782891      -0.57491121      -1.57024772
C        1.73103491       0.43205879      -2.25931772
C       -2.92719409       2.04405079       0.36394028
C        0.94702091      -0.59256221       0.20966028
C        0.19844191       0.41664779      -0.35772172
O        1.29875991      -1.45617121       2.52857728
O       -2.38691409       0.45064179      -1.24320172
O       -0.78351909      -1.34951921       1.71472128
C        0.58777591      -1.17783021       1.64425528
C       -2.06554809       1.03118779      -0.25376172
O       -0.85074709       0.98380279       0.33900128
H       -0.95256109      -1.65986421       2.64896228
H        2.60066491      -1.80721921       0.15194828
H        0.30233591       1.85291679      -1.98687272
H        3.56208991      -0.75664121      -2.02076872
H        1.95816591       0.97413279      -3.22318572
H       -2.95232309       1.77375979       1.45822828
H       -2.44792509       3.01905979       0.41390728
H       -3.91701809       2.09929279      -0.11946072
