21
Properties=species:S:1:pos:R:3 -405685.8581508983=T pbc="F F F"
C        1.94347674      -1.27221153      -0.14847770
C        1.31916174       1.41097147      -0.62221570
C        2.74956674      -0.46442853      -0.99050570
C        2.41555374       0.85397147      -1.35714870
C       -2.91387026       2.03352547       0.50981730
C        0.72541474      -0.77805453       0.32628230
C        0.43739574       0.59233647      -0.00370170
O       -1.51741226      -1.65923853       0.72916530
O       -1.70109626       1.06798947      -1.41196070
O        0.35945174      -2.61662753       1.42653430
C       -0.25539726      -1.67904453       0.80394330
C       -1.71540826       1.51158447      -0.27951670
O       -0.68028926       1.30344847       0.58937630
H       -0.30521526      -3.31057853       1.67448130
H        1.99747874      -2.32566653      -0.10664270
H        1.23611274       2.48885147      -0.51180570
H        3.69115874      -0.87275953      -1.45924670
H        3.14122974       1.46235847      -1.85638970
H       -3.81310526       2.19841747      -0.14621670
H       -3.07168026       1.20327047       1.27113230
H       -2.73625926       3.08274347       0.95133930
