21
Properties=species:S:1:pos:R:3 -405683.4566261766=T pbc="F F F"
C        1.60087290      -1.57002942      -0.90323051
C        0.95532590       1.18560358      -1.11275251
C        2.30243990      -0.72670142      -1.80984151
C        1.92197390       0.63412658      -1.97838251
C       -2.52753910       2.25462758       1.00115449
C        0.45567390      -1.08521442      -0.14004351
C        0.22682090       0.28682858      -0.31280451
O       -1.20709010      -1.57427642       1.67307249
O       -0.27250610       2.96069358       0.62351549
O        0.02183890      -3.22729442       0.74470949
C       -0.43759810      -1.97533642       0.73112249
C       -1.16116110       2.15071258       0.56504349
O       -0.98439010       0.79904758       0.06062349
H       -0.57704910      -3.87182942       1.27228049
H        1.75327490      -2.61423142      -0.79966251
H        0.75096190       2.21919458      -1.08871151
H        3.27680290      -1.02672342      -2.31663351
H        2.48163290       1.36283858      -2.54361151
H       -3.23320910       1.79244458       0.31684149
H       -2.65227810       1.60426258       1.88280149
H       -2.77229910       3.32080758       1.19484049
