21
Properties=species:S:1:pos:R:3 -405691.24772659823=T pbc="F F F"
C        1.58683581      -1.44426699      -0.66107627
C        0.89555281       0.98861201      -1.60787327
C        2.54440081      -0.80437299      -1.41773927
C        2.09703581       0.37459601      -2.02220127
C       -2.44871119       1.93794101       1.41081773
C        0.36101281      -0.91579099      -0.23248927
C        0.03289481       0.33897401      -0.74567127
O       -1.01934519      -1.28824499       1.72935273
O       -0.23164119       2.66853901       0.80424373
O       -0.11403819      -2.97817199       0.71250373
C       -0.34843719      -1.64791899       0.80810673
C       -1.20002119       1.99525301       0.66339973
O       -1.25857019       0.87727001      -0.35217327
H       -0.94339819      -3.36721499       1.08040073
H        1.86809581      -2.41965999      -0.27280727
H        0.84140781       1.99600501      -2.00663927
H        3.57065781      -1.18999499      -1.69780727
H        2.74142581       0.92436301      -2.66436627
H       -2.77300319       2.89989701       1.72879973
H       -3.33542319       1.44301701       0.88568873
H       -2.25015319       1.35052901       2.32023573
