21
Properties=species:S:1:pos:R:3 -405679.2143188332=T pbc="F F F"
C        2.22703832      -0.74481470       0.02708251
C        1.16447432       1.08852430      -1.65894549
C        2.98490032      -0.21126770      -1.05290549
C        2.46943432       0.61093630      -2.03420849
C       -3.06695968       1.59973830       0.70992451
C        0.91916432      -0.43566870       0.17253751
C        0.32727732       0.47859830      -0.73877349
O       -0.69273968      -0.24854970       1.99033451
O       -2.31961468      -0.56218870      -0.35961649
O        0.12752332      -2.25702370       1.34671351
C        0.08767032      -0.89147670       1.27934351
C       -2.13375168       0.61156330      -0.05630249
O       -0.89502368       1.24195630      -0.39199649
H       -0.37415268      -2.56386070       2.08611951
H        2.87872832      -1.31118170       0.68449551
H        0.70446732       1.60313130      -2.47979649
H        4.03931532      -0.54250970      -1.00168949
H        3.02811332       1.06505930      -2.84052249
H       -2.82460868       1.60544530       1.78425851
H       -2.64952968       2.55648530       0.37032951
H       -4.10034668       1.48693330       0.27871151
