21
Properties=species:S:1:pos:R:3 -405682.9588546104=T pbc="F F F"
C        1.91131615      -1.24740443      -0.10757963
C        1.42769515       1.45874957      -0.80122163
C        2.85061015      -0.53599743      -0.83131663
C        2.70535515       0.83922957      -1.06337663
C       -2.85483685       1.65974057       0.64782537
C        0.62055415      -0.64033343       0.16897837
C        0.45278215       0.69836557      -0.12596463
O       -0.94557985      -1.20105043       1.97401037
O       -1.81751785       0.94937757      -1.56568463
O       -0.37705085      -2.66616443       0.30439637
C       -0.28091585      -1.42941843       0.97808437
C       -1.84303085       1.18722857      -0.35238963
O       -0.61311485       1.24495557       0.40602437
H       -1.10354585      -3.10294843       0.70976037
H        2.01239515      -2.25949143       0.26397037
H        1.17792715       2.58620057      -0.80913463
H        3.72108715      -1.07717643      -1.13505663
H        3.44048915       1.36386157      -1.69478563
H       -2.49446385       2.63205557       1.01326337
H       -3.94018985       1.66938557       0.14229737
H       -2.65615685       1.04146357       1.45935337
