21
Properties=species:S:1:pos:R:3 -405683.65466492076=T pbc="F F F"
C        1.90720774      -1.25284159      -0.49501853
C        1.49494074       1.42638441      -0.51038053
C        2.87543274      -0.46644559      -1.08949453
C        2.65812974       0.91955741      -1.18870753
C       -2.92989526       1.99542241       0.47164647
C        0.74022074      -0.75441359       0.08899547
C        0.46944874       0.62328741       0.00430447
O       -1.48883126      -1.20764659       0.81577747
O       -1.71941326       0.74222041      -1.28029753
O       -0.00758126      -2.58967459       1.52158147
C       -0.32910826      -1.51238159       0.77438047
C       -1.78680026       1.09894141      -0.10851553
O       -0.61201626       1.20390841       0.56210747
H       -0.94411826      -2.73139459       1.81137047
H        1.94517674      -2.30954059      -0.55985953
H        1.30797374       2.48886841      -0.66902453
H        3.61319074      -0.87094759      -1.76448553
H        3.24483174       1.67485741      -1.84090053
H       -3.73025626       1.90745741      -0.26573553
H       -3.02104126       1.54051941       1.53365447
H       -2.38491126       2.94338241       0.49981147
