21
Properties=species:S:1:pos:R:3 -405691.41618967534=T pbc="F F F"
C        2.00390783      -1.14361055      -0.42280080
C        0.86926683       1.17495645      -1.57689480
C        2.57745083      -0.51554255      -1.55855380
C        1.97672783       0.57784045      -2.15793280
C       -2.98158517       1.60284745       0.54433620
C        0.85123083      -0.52676955       0.23078220
C        0.29390083       0.62011845      -0.40312880
O        0.58216383      -2.29383355       1.82702820
O       -2.16458017       0.00074245      -1.04120080
O       -0.50135217      -0.34510955       2.20235920
C        0.32009883      -1.19542555       1.49952120
C       -1.97481117       0.84974045      -0.19509180
O       -0.76969717       1.25164345       0.17472920
H       -0.46517917      -0.82455555       3.06536820
H        2.55731583      -2.14037655      -0.23571480
H        0.21229083       2.01654645      -1.95765880
H        3.40395683      -0.87973955      -2.29484980
H        2.46414483       1.06706445      -3.04394680
H       -2.76352117       2.65720045       0.59495620
H       -3.97035217       1.56484145       0.08585920
H       -3.01959417       1.34938145       1.68898620
