21
Properties=species:S:1:pos:R:3 -405690.4943152209=T pbc="F F F"
C        2.05887864      -0.97912062      -0.35120290
C        0.71246764       1.05430638      -1.61713090
C        2.60160464      -0.44697862      -1.54889090
C        1.86809864       0.56709938      -2.25394690
C       -3.08976436       1.89908838       0.29061710
C        0.89677464      -0.46878562       0.18571910
C        0.20219764       0.58225638      -0.44296890
O        0.72784964      -2.36711262       1.71350210
O       -2.16973836      -0.22763262      -0.58937890
O       -0.30863236      -0.43855962       2.22121710
C        0.44989164      -1.18909162       1.38325010
C       -2.08438536       0.84018338      -0.14651190
O       -0.81438436       1.27370538       0.20939810
H       -0.64568436      -1.06604462       2.94202110
H        2.56131864      -1.65286862       0.29789010
H        0.15524664       1.89488338      -2.05914190
H        3.52133164      -0.98657062      -1.91841890
H        2.29047764       1.11199338      -3.13011890
H       -3.93321636       1.41871438       0.66182910
H       -2.64038936       2.56405038       0.99386810
H       -3.65445436       2.50767538      -0.61078390
