21
Properties=species:S:1:pos:R:3 -405679.49678713427=T pbc="F F F"
C        2.00592175      -1.21380696      -0.53301630
C        0.90033775       1.15327404      -1.48287430
C        2.63630875      -0.50545796      -1.43363630
C        2.11353175       0.65827504      -2.03077330
C       -2.79030425       1.89349704       0.92648970
C        0.88404375      -0.69538596       0.12058270
C        0.34660075       0.54374904      -0.31176430
O        0.51853675      -1.21195596       2.53723870
O       -2.23055725       0.59030704      -1.18406430
O       -0.85949325      -1.97753496       0.94489770
C        0.26348175      -1.32019796       1.32251770
C       -1.95766725       1.09900604      -0.11580430
O       -0.63617425       1.13454504       0.42280770
H       -1.26365225      -2.36016296       1.82129170
H        2.25102075      -2.16969496      -0.22656430
H        0.50110575       2.09779404      -1.86633430
H        3.57304175      -0.92704296      -1.68219030
H        2.42221275       1.35790904      -2.85969530
H       -2.59330525       1.30066504       1.92726770
H       -2.58610725       2.91638104       1.25542270
H       -3.81287225       1.82388604       0.57814270
