21
Properties=species:S:1:pos:R:3 -405690.8460359725=T pbc="F F F"
C        1.76644189      -1.22149018      -0.29370125
C        1.52019989       1.52571582      -0.35673925
C        2.75908089      -0.42275318      -0.87283425
C        2.64898689       0.92072782      -0.97773625
C       -2.95554511       1.85287682       0.19262675
C        0.59665689      -0.73735718       0.27842675
C        0.53286489       0.72679382       0.14883375
O       -0.62060711      -1.32527518       2.14004575
O       -1.60240411       0.79311282      -1.62226025
O       -0.66649811      -2.74645618       0.21680675
C       -0.33110911      -1.63159718       0.98385575
C       -1.74162311       1.26993182      -0.53505825
O       -0.67258811       1.35192482       0.42510375
H       -1.21436911      -3.37275218       0.75596975
H        1.98926089      -2.25169018      -0.33088425
H        1.40582889       2.55608982      -0.24449925
H        3.55842089      -1.03432818      -1.32761825
H        3.33876989       1.54311382      -1.48366225
H       -3.11574511       1.16169282       1.06622275
H       -2.62109211       2.88217882       0.53207575
H       -3.91260611       1.91223882      -0.31835725
