21
Properties=species:S:1:pos:R:3 -405673.6774437204=T pbc="F F F"
C        1.92132939      -1.16385324      -0.52415584
C        0.72200439       1.12962376      -1.43350984
C        2.28480839      -0.58051724      -1.69292284
C        1.66996939       0.49436376      -2.18554884
C       -3.02555961       2.08690276       0.24928816
C        1.08086739      -0.46653924       0.39132616
C        0.27643939       0.49503876      -0.18529684
O        1.35006339      -1.73648924       2.38413816
O       -2.31687461       0.23738076      -1.06349984
O       -0.68258561      -1.34133724       1.63794616
C        0.67620039      -1.21506824       1.54886916
C       -2.04380661       1.14738676      -0.28656684
O       -0.80805361       1.13531676       0.40202616
H       -0.74239661      -2.03545424       2.39547916
H        2.31895039      -2.21842724      -0.37946284
H        0.09967639       1.84050976      -1.84149884
H        3.06722739      -1.06084524      -2.26866184
H        1.87942139       0.77269376      -3.20491384
H       -3.99325161       1.49809076       0.29695816
H       -2.74992661       2.55553876       1.17608316
H       -3.29330961       2.76104676      -0.47082984
