21
Properties=species:S:1:pos:R:3 -405689.3648522726=T pbc="F F F"
C        2.15367086      -0.90746303      -0.09872848
C        0.61454586       0.92363297      -1.47528348
C        2.62116186      -0.47808803      -1.38836748
C        1.87433786       0.60195797      -1.93061748
C       -3.27281914       1.67219797       0.16050152
C        0.86462486      -0.54943803       0.45052952
C        0.14989586       0.41722897      -0.31324948
O       -0.73980214      -1.35791103       2.03940052
O       -1.98986214       1.17262097      -1.86682948
O        1.43810686      -1.84695903       2.36983652
C        0.41794086      -1.32573303       1.69443852
C       -2.13143114       1.08692297      -0.63001848
O       -1.13624914       0.68956597       0.20275052
H        1.02407086      -2.18474503       3.14631552
H        2.79380486      -1.53715203       0.58208652
H        0.09015586       1.82664797      -1.84765048
H        3.66249386      -0.71610203      -1.64096348
H        2.23194186       1.27217897      -2.71154348
H       -4.03713614       2.02235797      -0.62694948
H       -3.49843414       0.83462797       0.86102552
H       -2.93226414       2.63119797       0.71060352
