21
Properties=species:S:1:pos:R:3 -405686.2817182233=T pbc="F F F"
C        1.81182535      -1.26996669      -0.57055519
C        0.76163435       1.07818931      -1.63944419
C        2.27442135      -0.74181669      -1.78836219
C        1.78034135       0.41672331      -2.41290819
C       -3.08665865       1.55624631       0.52001781
C        0.82647435      -0.59616969       0.09008181
C        0.23212335       0.58839231      -0.45073219
O        1.22734735      -1.70439369       2.34528981
O       -2.07477365      -0.11247069      -0.74237819
O       -0.66857565      -0.50826569       1.90323881
C        0.52764635      -1.01490169       1.53629281
C       -1.95235265       0.91010731       0.00199981
O       -0.67385365       1.38219731       0.22016881
H       -0.66022165      -0.66413969       2.86152981
H        2.30268235      -2.08746869      -0.00486919
H        0.42854835       2.00733331      -2.06308219
H        3.09023135      -1.30523669      -2.27376919
H        2.07394335       0.79897731      -3.47543819
H       -3.72325665       0.73859931       0.94745881
H       -2.85859065       2.43732231       1.27202281
H       -3.70833865       2.00434531      -0.27910019
