21
Properties=species:S:1:pos:R:3 -405677.8220341773=T pbc="F F F"
C        1.73995674      -1.32151201      -0.68867473
C        0.68379174       1.12391799      -1.44734973
C        2.02927074      -0.89450301      -1.99630273
C        1.37276474       0.37205399      -2.33908573
C       -3.01259526       1.40856499       0.63099227
C        0.90314774      -0.62851901       0.21406727
C        0.40431074       0.56061799      -0.24853173
O        1.49907174      -1.11635901       2.61523627
O       -2.02374426       0.33850799      -1.37540073
O       -0.69781626      -0.95189101       1.84916527
C        0.66955574      -0.98298101       1.69587127
C       -1.89994726       0.97697699      -0.26916673
O       -0.68406826       1.12367599       0.41821627
H       -0.91116126      -1.21780801       2.73788927
H        2.39288074      -2.11971401      -0.28072673
H        0.10250974       2.04299999      -1.71444973
H        2.79053574      -1.42627001      -2.55996473
H        1.35051174       0.72337699      -3.36923773
H       -3.86013926       1.53048099       0.00377427
H       -3.22117326       0.54398499       1.27557827
H       -2.79930026       2.22351899       1.20878027
