21
Properties=species:S:1:pos:R:3 -405691.9262044309=T pbc="F F F"
C        2.23132119      -0.95598446      -0.26776846
C        0.64605419       0.80515554      -1.77961546
C        2.55824119      -0.67593146      -1.57817446
C        1.82741319       0.19900654      -2.32235346
C       -2.92871181       1.72214354       0.80129554
C        1.02758119      -0.53590646       0.25967554
C        0.29489319       0.46625954      -0.44227746
O        1.30595619      -1.36956346       2.48611654
O       -2.56191281       0.67568054      -1.28014746
O       -0.82900181      -1.33271446       1.62966254
C        0.53626119      -1.07378646       1.60790854
C       -2.16057481       1.08680254      -0.22511046
O       -0.80775481       1.04701854       0.21474654
H       -0.89239981      -1.67051946       2.61062754
H        2.72893719      -1.66661046       0.34490854
H       -0.05381281       1.63997654      -2.08361946
H        3.43052319      -1.12695146      -2.07244346
H        2.01026619       0.44346854      -3.43594146
H       -3.19123281       0.84930054       1.50677954
H       -2.28773881       2.54663254       1.26595154
H       -3.84911781       2.17491254       0.44137154
