21
Properties=species:S:1:pos:R:3 -405677.55893506797=T pbc="F F F"
C        1.86057054      -1.28387310      -0.18943425
C        1.55446154       1.37037590      -0.78004325
C        2.78619054      -0.73515710      -1.06611925
C        2.69750554       0.65721790      -1.19638025
C       -3.07023846       1.72763490       0.78327475
C        0.70066454      -0.62064610       0.15537975
C        0.51424554       0.76849490      -0.04196125
O       -1.55206746      -1.61179510       0.47070475
O       -1.82871046       1.13052290      -1.35883925
O        0.33218654      -2.47900010       1.64043075
C       -0.37959746      -1.57582010       0.77640075
C       -1.84538846       1.39380590      -0.15701525
O       -0.61637446       1.51720990       0.46232675
H       -0.30888346      -3.24437610       1.85275775
H        2.05769154      -2.26228810       0.29444875
H        1.47650654       2.46913190      -0.97957325
H        3.78609154      -1.11024210      -1.34945625
H        3.55079354       1.38626290      -1.44987625
H       -3.55112546       2.59777490       0.26961175
H       -3.59384346       0.69037890       0.80389375
H       -2.62359146       2.10998790       1.71215175
