21
Properties=species:S:1:pos:R:3 -405683.6301713048=T pbc="F F F"
C        1.87929411      -1.19833073      -0.51187201
C        0.62593011       0.90907927      -1.57954801
C        2.56873111      -0.41371773      -1.44611801
C        1.89682811       0.66340727      -2.07154701
C       -2.42257489       2.26227927       0.76297899
C        0.52147211      -1.06548273      -0.21503301
C        0.00482711       0.10943927      -0.72834101
O       -0.38022589      -1.07902073       2.04315399
O       -0.04927389       1.96649527       1.07410299
O       -0.95002389      -2.74059973       0.56323699
C       -0.29211589      -1.54182373       0.93129199
C       -1.12918789       1.60742427       0.61530799
O       -1.28303489       0.57494227      -0.29716001
H       -1.49260089      -3.01753373       1.33275299
H        2.32855011      -2.12886473      -0.15015101
H       -0.05833389       1.67238627      -2.05904801
H        3.57905511      -0.70039573      -1.63289101
H        2.35032811       1.21120027      -2.92126401
H       -2.44955089       2.63148427       1.79511899
H       -2.26313089       3.05857127       0.10727199
H       -3.23565489       1.69567927       0.35149199
