21
Properties=species:S:1:pos:R:3 -405690.9597010781=T pbc="F F F"
C        2.02387227      -1.09705611      -0.32606705
C        0.88828227       1.22603589      -1.62844805
C        2.54908127      -0.58192111      -1.56549905
C        2.00211827       0.56670889      -2.20999105
C       -3.09483373       1.29799289       0.74673695
C        0.81897727      -0.49370111       0.17018595
C        0.33434927       0.66064189      -0.49018105
O        0.22143627      -2.21457311       1.63068595
O       -1.95163173      -0.32162711      -0.65208205
O       -0.22098373      -0.06686111       2.19031395
C        0.22432727      -1.02813711       1.36536295
C       -1.91043673       0.67935589      -0.01571505
O       -0.78645473       1.45476789      -0.13632205
H       -0.72522473      -0.53430211       2.94889495
H        2.39778727      -1.88890311       0.25455795
H        0.33127727       2.06865689      -2.10880305
H        3.35936727      -1.19066211      -2.02263705
H        2.57074627       1.04740289      -3.02448405
H       -4.10963673       0.68545989       0.52388495
H       -2.97826073       1.03365589       1.84625995
H       -3.06928673       2.35849489       0.52785195
