21
Properties=species:S:1:pos:R:3 -405690.7042562349=T pbc="F F F"
C        1.82296944      -1.20146400      -0.32373132
C        1.60080644       1.41486300      -0.42155632
C        2.87298944      -0.51491900      -0.87292432
C        2.83002444       0.85058200      -0.76570632
C       -2.83154156       2.10719400       0.54285968
C        0.58751844      -0.71986400       0.09153568
C        0.49177944       0.72719800      -0.02141532
O       -1.46426356      -1.31767000       1.06714568
O       -1.93218656       0.80311800      -1.29560432
O        0.03824544      -3.01362800       0.74456268
C       -0.39040056      -1.66456900       0.64856568
C       -1.82440556       1.39393600      -0.19145032
O       -0.56681456       1.49229400       0.42944168
H       -0.66460056      -3.42591800       1.34329868
H        2.02122744      -2.25845300      -0.20075332
H        1.47252144       2.58179500      -0.45956332
H        3.67895344      -1.13216400      -1.13956932
H        3.63868644       1.44589100      -1.13026132
H       -3.31644656       1.22233800       1.02043568
H       -2.45880856       2.84886600       1.28319168
H       -3.51476856       2.53610400      -0.07981132
