21
Properties=species:S:1:pos:R:3 -405688.07524143875=T pbc="F F F"
C        1.90530069      -1.39442515      -0.43408710
C        1.47580069       1.34359685      -0.46306010
C        2.73461369      -0.52419515      -1.13228010
C        2.56414369       0.87029585      -1.08177910
C       -3.08236931       1.43714285       0.13409890
C        0.70610069      -0.88800115       0.14587890
C        0.40074769       0.53031885       0.09050290
O       -1.19599331      -1.36195715       1.80312690
O       -1.44609031       2.30473085      -1.38197010
O        0.01117569      -3.01205715       0.87008190
C       -0.35279531      -1.69956315       0.97585790
C       -1.72723931       1.70191185      -0.39784510
O       -0.81539631       0.95242085       0.41011390
H       -0.65360431      -3.44108815       1.38684790
H        2.14611969      -2.42281615      -0.22110910
H        1.41165869       2.44201885      -0.25562410
H        3.68891969      -0.85540615      -1.56880710
H        3.36884169       1.54739485      -1.52154210
H       -3.63539931       2.37118585       0.17448190
H       -3.63598231       0.61945385      -0.39577210
H       -3.05599031       1.06800185       1.15087590
