21
Properties=species:S:1:pos:R:3 -405690.575911523=T pbc="F F F"
C        1.82579685      -1.39351990      -0.26587302
C        1.38891585       1.40482210      -0.59349902
C        2.87893985      -0.57880490      -0.64970102
C        2.69182085       0.81809110      -0.74919702
C       -2.94220015       1.82305310       0.66934898
C        0.60856685      -0.82355690       0.01368198
C        0.42022785       0.60765110      -0.04030002
O       -1.04725315      -1.32207890       1.59357298
O       -1.77023415       1.72342210      -1.47030202
O       -0.10092015      -2.95808290       0.25651798
C       -0.25784015      -1.66865890       0.74013098
C       -1.75933615       1.49215310      -0.29226002
O       -0.72450015       1.13468110       0.47807098
H       -0.77721415      -3.63544690       0.54196998
H        1.92655585      -2.44209890      -0.21669902
H        1.11912085       2.42500110      -0.83988202
H        3.90137885      -0.88774090      -0.67674102
H        3.48633685       1.48678710      -1.05253702
H       -3.75796315       2.29329710       0.04411698
H       -3.26350315       0.79962210       1.10456698
H       -2.62548815       2.51156410       1.38356998
