21
Properties=species:S:1:pos:R:3 -405687.45530597994=T pbc="F F F"
C        1.85383210      -1.30915270      -0.52402343
C        0.86865110       1.03388530      -1.46689043
C        2.38624010      -0.74711570      -1.73854243
C        1.90436610       0.45934130      -2.20196243
C       -2.86679590       2.00859330       0.69576257
C        0.77734510      -0.65908870       0.19005057
C        0.35912110       0.56354230      -0.31640643
O        1.12740610      -1.62083270       2.43347957
O       -2.24490990       0.58256030      -1.17059243
O       -0.99317290      -1.46805770       1.53751357
C        0.39782910      -1.17804970       1.53774057
C       -1.88985190       1.10581730      -0.15881443
O       -0.62904290       1.28190530       0.32495957
H       -1.00007190      -2.12688970       2.28910557
H        2.19910510      -2.13226170      -0.01114143
H        0.58696710       2.05942230      -1.90626143
H        3.14422710      -1.40291370      -2.24072543
H        2.45451710       0.96888330      -3.06057043
H       -3.01683390       1.67486630       1.75602357
H       -2.23621490       2.92659930       0.76627157
H       -3.78601190       2.25058330       0.23148257
