21
Properties=species:S:1:pos:R:3 -405688.77334412705=T pbc="F F F"
C        1.57886739      -1.63650392      -0.99695511
C        0.96204939       1.06319608      -1.67980311
C        2.42792439      -0.85120492      -1.86520211
C        2.18379939       0.53743508      -2.06549011
C       -2.67496061       1.89989008       1.00648189
C        0.47099439      -1.01711192      -0.34659311
C        0.15329739       0.30575908      -0.76339911
O       -1.01461861      -0.79171192       1.50069889
O       -0.38757961       2.21626408       1.58678689
O       -0.09636461      -2.81824092       1.15985189
C       -0.41090761      -1.51317292       0.84046389
C       -1.24587861       1.70238008       0.83340089
O       -1.02498561       0.89574408      -0.32271011
H       -0.66645061      -3.10968492       1.91502189
H        1.69854939      -2.71455592      -0.90392611
H        0.74034039       2.12660308      -1.85953211
H        3.37805039      -1.26283792      -2.23060711
H        2.95596439       1.16659308      -2.55339111
H       -2.71232861       2.75809708       1.78735889
H       -3.21214261       2.10537108       0.06907289
H       -3.15267061       0.99087408       1.46515489
