21
Properties=species:S:1:pos:R:3 -405700.5845523777=T pbc="F F F"
C        1.70876522      -1.42331775      -0.65040806
C        1.62554122       1.35389325      -0.63657306
C        2.62003822      -0.72369375      -1.41114306
C        2.59266022       0.67136725      -1.36739006
C       -2.45014178       2.26069525       1.22368894
C        0.64353522      -0.77651275      -0.00170706
C        0.59179722       0.65824125       0.00267594
O       -0.03558778      -2.79660275       0.98886394
O       -2.06326678       0.98257825      -0.85255506
O       -1.57633078      -1.21198475       0.67790494
C       -0.30059978      -1.70550975       0.61146794
C       -1.72675378       1.38758725       0.20028494
O       -0.29707278       1.39834525       0.69188394
H       -2.21573278      -1.80872675       1.05463294
H        1.65134822      -2.52567675      -0.64710006
H        1.55237022       2.42174125      -0.72928006
H        3.38133122      -1.31626675      -1.89338206
H        3.39296122       1.29951125      -1.84533706
H       -2.23211878       1.95622625       2.21645194
H       -2.06112878       3.22931125       1.02768694
H       -3.59025678       2.30173325       1.07365194
