21
Properties=species:S:1:pos:R:3 -405685.4038103119=T pbc="F F F"
C        1.87851830      -1.09425711      -0.46644038
C        0.61264230       1.03669889      -1.58885338
C        2.37182630      -0.59834211      -1.68224838
C        1.72597630       0.43999689      -2.25169638
C       -2.95630870       1.85079689       0.50098662
C        0.88737730      -0.50727811       0.28477962
C        0.30847330       0.60022689      -0.27960438
O        1.29108330      -1.52882111       2.37016562
O       -2.11777970       0.29697089      -1.10691638
O       -0.82580770      -1.53153311       1.59263862
C        0.44645930      -1.12826611       1.59574162
C       -1.90205570       1.14053189      -0.19144738
O       -0.68495170       1.25071289       0.40492862
H       -0.85186770      -2.02476911       2.42375062
H        2.29048230      -2.07966811      -0.29881038
H        0.07325330       1.89776989      -2.01562338
H        3.21657430      -1.16178511      -2.10236338
H        1.96130030       0.72083489      -3.32178338
H       -3.47907470       0.96933689       0.84604262
H       -2.63282370       2.43704489       1.46978362
H       -3.64137070       2.52924489      -0.18715738
