21
Properties=species:S:1:pos:R:3 -405670.46996731=T pbc="F F F"
C        1.74550914      -1.23402796      -0.25924350
C        1.81286714       1.50273704      -0.11633050
C        2.87589314      -0.59156196      -0.77523650
C        2.83913814       0.79221404      -0.67001150
C       -2.78592186       1.39773304       0.58959450
C        0.52270614      -0.58553096      -0.02238250
C        0.54727814       0.82842004      -0.02510050
O       -1.03549386      -1.16500996       1.83246250
O       -1.87731586       0.86375104      -1.55015350
O       -0.66533386      -2.66671396       0.10931650
C       -0.52208386      -1.39834496       0.71856650
C       -1.70164686       1.11554504      -0.37181550
O       -0.50217486       1.49752704       0.21172250
H       -0.89175986      -3.38140396       0.69115050
H        1.79236214      -2.30009096       0.00061650
H        1.87019014       2.61465704       0.19807350
H        3.69706714      -1.33763296      -1.02575750
H        3.71197714       1.44987804      -1.05093150
H       -2.68181586       0.71248704       1.40507250
H       -2.43288486       2.39383404       1.02828250
H       -3.81544086       1.42935504       0.27460550
