21
Properties=species:S:1:pos:R:3 -405687.81777634885=T pbc="F F F"
C        1.95889776      -1.03719660      -0.36364337
C        0.74446076       1.10043940      -1.55912937
C        2.57302576      -0.47860960      -1.42207537
C        1.86452676       0.47153340      -2.14965237
C       -3.07104824       1.62849340       0.39884063
C        0.80243376      -0.46077260       0.28970163
C        0.29702176       0.63760340      -0.34397837
O        0.30404276      -2.36720660       1.55014563
O       -2.10181724       0.00992340      -1.21973037
O        0.07879676      -0.33970460       2.52069463
C        0.39277576      -1.15553860       1.46973363
C       -2.05073224       0.90275040      -0.32446737
O       -0.80518824       1.20220440       0.27859863
H       -0.35202524      -0.99484360       3.13379063
H        2.30411276      -2.02667760       0.09181763
H        0.29641376       1.93008740      -2.06372037
H        3.50330276      -0.75559560      -1.83345937
H        2.37679576       0.92784240      -3.06092237
H       -3.52232224       1.09091740       1.22554663
H       -2.51088924       2.41516140       0.84912163
H       -3.84422724       1.98185840      -0.32999537
