21
Properties=species:S:1:pos:R:3 -405693.78520177875=T pbc="F F F"
C        1.92343672      -1.25712397      -0.27795654
C        1.45085172       1.45799003      -0.74243654
C        2.77595272      -0.62062797      -1.06116854
C        2.62427372       0.81547503      -1.21540254
C       -2.93439228       1.84940903       0.44716946
C        0.78567972      -0.62210597       0.26691046
C        0.47692372       0.71015403       0.02507146
O       -1.44590928      -1.14398797       1.24164546
O       -1.78029628       0.87895303      -1.44067254
O        0.17667372      -2.82590897       1.21362046
C       -0.29725428      -1.50763397       0.98312446
C       -1.82670728       1.25442203      -0.27437054
O       -0.69097928       1.34212603       0.43832146
H       -0.51624828      -3.44157997       1.58201446
H        2.04970372      -2.34684697      -0.05971054
H        1.27228772       2.54127703      -0.80428954
H        3.39827272      -1.15414397      -1.75208454
H        3.30711372       1.23191503      -1.97888154
H       -3.91751028       1.75200803      -0.03138454
H       -2.89974228       1.52666603       1.50321846
H       -2.61054628       2.88000703       0.49873146
