21
Properties=species:S:1:pos:R:3 -405673.1916263393=T pbc="F F F"
C        1.63757164      -1.54632126      -0.75242224
C        0.89024064       1.07695374      -1.31988124
C        2.58967464      -0.73072926      -1.36872424
C        2.07058764       0.52015174      -1.68302524
C       -2.68087936       2.32221474       1.11391476
C        0.27958164      -1.03853926      -0.49003624
C        0.04402964       0.33212574      -0.59822424
O       -0.61461936      -1.37758926       1.76898276
O       -0.29415836       2.76041874       0.62628976
O       -0.42065636      -3.23182326       0.47248676
C       -0.29873036      -1.82114926       0.66120176
C       -1.22286336       2.03841674       0.53388076
O       -1.10213836       0.75411074       0.05665076
H       -0.76503436      -3.65514626       1.24884476
H        1.96868564      -2.46133926      -0.21164524
H        0.69281064       2.11181574      -1.55738924
H        3.64264064      -0.83201126      -1.39307124
H        2.75657264       1.19242074      -2.27993324
H       -2.65912036       3.20620074       1.86033276
H       -3.54491736       2.52688874       0.51684476
H       -2.90304736       1.55771374       1.87962476
