21
Properties=species:S:1:pos:R:3 -405682.98160631146=T pbc="F F F"
C        1.95428457      -1.22783238      -0.40354705
C        1.37716857       1.42105762      -0.48004805
C        2.92986057      -0.39765938      -0.75789505
C        2.56099257       0.95097162      -0.96622005
C       -2.91472543       2.01793662       0.07481195
C        0.72530957      -0.81440838       0.22223095
C        0.39219357       0.49711862       0.04075695
O       -0.60893643      -1.10492738       2.00981795
O       -1.61968943       0.88619762      -1.46830105
O       -0.74129743      -2.64218138       0.27439095
C       -0.23349943      -1.55555638       0.96316195
C       -1.75765443       1.16604362      -0.34111705
O       -0.76576743       1.03527262       0.56168295
H       -1.31899443      -3.01992638       0.92726995
H        2.08967857      -2.28913238      -0.39845405
H        1.00250757       2.46552262      -0.77354405
H        3.95170657      -0.80137638      -1.00247705
H        3.24345257       1.65648062      -1.44814105
H       -3.78343343       1.45543762      -0.30139505
H       -2.94716743       2.05220262       1.19889595
H       -2.88777143       2.95465662      -0.44466905
