21
Properties=species:S:1:pos:R:3 -405693.33194619324=T pbc="F F F"
C        2.13973765      -1.11769667      -0.18672282
C        0.86897965       1.06801933      -1.54629482
C        2.73481765      -0.64660967      -1.37445882
C        2.05160865       0.46624933      -1.97108882
C       -3.14080035       1.32508533       0.59462518
C        0.90093765      -0.62273567       0.23463418
C        0.35320965       0.52642133      -0.34438982
O       -1.12607535      -1.13966567       1.69548218
O       -2.21830435       0.61167833      -1.56057182
O        1.13036065      -1.50361067       2.38957818
C        0.11266065      -1.10909167       1.50226518
C       -2.03523635       1.06097833      -0.42565182
O       -0.76021135       1.21693533       0.15691618
H        0.81862265      -1.89849767       3.24679418
H        2.61535165      -1.89584267       0.40610118
H        0.33510365       1.82839133      -2.15290982
H        3.62285065      -1.17471667      -1.79887282
H        2.43788065       0.68915333      -3.03272482
H       -4.14932235       1.03562233       0.27688118
H       -2.84726535       0.66012333       1.41876018
H       -3.08963235       2.36618533       0.95742918
