21
Properties=species:S:1:pos:R:3 -405694.4322307454=T pbc="F F F"
C        2.02258767      -1.09631295      -0.28892505
C        0.82266467       1.03678705      -1.56846505
C        2.72929267      -0.50669295      -1.37762205
C        2.02499267       0.56169005      -2.05613005
C       -3.26051833       1.82791405       0.01346295
C        0.79914167      -0.60141695       0.27717695
C        0.20374167       0.47904005      -0.41211905
O       -0.71322833      -0.69644395       2.13080895
O       -2.23310833      -0.00810995      -1.17824705
O        1.26924167      -1.84315295       2.29972695
C        0.30988267      -1.09769795       1.65611395
C       -2.14402233       0.94020305      -0.44221205
O       -0.89974633       1.11784505       0.10534295
H        1.11178467      -1.75287095       3.24964195
H        2.50474367      -1.90299795       0.24810795
H        0.23175167       1.71501005      -2.16000705
H        3.64097367      -0.98089595      -1.78335905
H        2.21647267       1.09360605      -3.05091105
H       -3.00403733       2.59725105       0.82293695
H       -3.55195033       2.39864005      -0.92956005
H       -4.01973033       1.14685205       0.30852995
