21
Properties=species:S:1:pos:R:3 -405669.6653055592=T pbc="F F F"
C        2.15184106      -0.92579538      -0.15538924
C        1.08548906       1.39830462      -1.59780424
C        2.96667206      -0.19544038      -1.02365324
C        2.42375906       0.99971462      -1.75014424
C       -3.37001594       1.65486262      -0.30153124
C        0.79587106      -0.33524938       0.16377876
C        0.33595206       0.80870662      -0.48512224
O        0.03357006      -0.78664338       2.42266076
O       -2.22245594      -0.45297338       0.25934876
O       -0.05554294      -2.57199438       1.04294876
C        0.08811606      -1.10597238       1.26439676
C       -2.15847394       0.66128462      -0.12541524
O       -0.91964994       1.31226762      -0.42545624
H       -0.57462694      -2.83942638       1.89028876
H        2.29738106      -1.85794038       0.28665376
H        0.69568806       2.31468262      -2.12024924
H        4.01002306      -0.33831738      -1.30666824
H        3.19181106       1.55786762      -2.38706524
H       -3.07396194       2.70712762      -0.65652324
H       -4.07501894       1.22105662      -1.07534824
H       -3.68316994       1.65218462       0.76033076
