21
Properties=species:S:1:pos:R:3 -405676.68637985416=T pbc="F F F"
C        2.10253525      -1.03416572      -0.11220639
C        1.09364425       1.19876328      -1.44267739
C        2.80023625      -0.39002372      -1.08972839
C        2.37400825       0.71005328      -1.81535639
C       -2.94767575       1.80643628       0.61160461
C        0.85445525      -0.59342272       0.28032161
C        0.40651125       0.58723428      -0.37892839
O       -1.05954475      -1.20802472       1.73977661
O       -2.49548075       0.45185228      -1.40965739
O        0.81982525      -2.31534272       1.97376261
C        0.07795025      -1.33472872       1.31245661
C       -2.12908175       1.11897828      -0.43675239
O       -0.77173175       1.23584028      -0.00981839
H        0.13681425      -2.53120172       2.55346661
H        2.57060425      -1.45755672       0.72386461
H        0.71829625       2.12179828      -1.86280339
H        3.79353325      -0.76200372      -1.26531839
H        2.99528425       1.36671128      -2.49598539
H       -3.77358475       1.09330828       0.76953661
H       -2.47927775       2.09767428       1.61342661
H       -3.46348875       2.56805128       0.12440561
