21
Properties=species:S:1:pos:R:3 -405686.4221595634=T pbc="F F F"
C        2.15800892      -0.98820116      -0.27564547
C        0.77859792       1.15848884      -1.51482347
C        2.65082492      -0.42743116      -1.42096747
C        2.02608492       0.66401484      -2.03596247
C       -3.16357908       1.52035384       0.40070653
C        0.97846192      -0.51773416       0.32820453
C        0.32501092       0.57323684      -0.30635347
O        0.11907092      -2.46284516       1.62507953
O       -2.16034808       0.28151484      -1.44609147
O        0.03219392      -0.40787516       2.54141853
C        0.36584992      -1.22268016       1.52480253
C       -2.12788508       0.87639984      -0.38554047
O       -0.82985508       1.09433884       0.16708053
H       -0.48863708      -0.86957816       3.22054953
H        2.73954192      -1.91891216       0.03147953
H        0.21013492       1.97552084      -2.00188547
H        3.49504392      -0.95491616      -1.93774947
H        2.35009892       1.10608284      -3.00881547
H       -3.80047708       0.73209684       0.87858353
H       -3.10452208       2.15892984       1.28160053
H       -3.86979408       2.01049384      -0.40671847
