21
Properties=species:S:1:pos:R:3 -405683.006450784=T pbc="F F F"
C        2.03426991      -1.11851139      -0.33066647
C        0.69338891       0.94404161      -1.72781647
C        2.52164691      -0.66063139      -1.58965947
C        1.84474791       0.36928661      -2.29518247
C       -2.95253109       1.60179261       0.72391453
C        0.94300091      -0.57411039       0.22944453
C        0.23963691       0.50330661      -0.33888147
O        1.05569391      -1.64638239       2.34279953
O       -2.19654109       0.38479261      -1.21174447
O       -0.90822009      -1.02212439       1.73185053
C        0.43929191      -1.09954439       1.48792553
C       -1.98695209       1.04968361      -0.17881047
O       -0.64174109       1.31540761       0.24837253
H       -0.98425509      -1.47643639       2.65430653
H        2.46454891      -1.97682839       0.29226253
H        0.37470591       1.87522561      -2.17148447
H        3.55430791      -1.03373939      -1.93482747
H        2.20975291       0.75271261      -3.25410547
H       -3.82963709       2.02447661       0.16561153
H       -3.35953009       0.79349961       1.24773753
H       -2.69095209       2.31965461       1.48452153
