21
Properties=species:S:1:pos:R:3 -405684.00805332296=T pbc="F F F"
C        1.54952479      -1.37896260      -0.69508428
C        0.97586079       1.07293840      -1.77211428
C        2.29696979      -0.96435560      -1.78771928
C        1.98540579       0.29351640      -2.33038328
C       -2.60744021       1.73934240       1.14973172
C        0.36031379      -0.72772860      -0.12560028
C        0.09463179       0.53221440      -0.83777328
O       -1.42131821      -1.18515160       1.51862672
O       -0.22384421       1.91861540       1.44018772
O        0.40136379      -2.69572660       1.23516372
C       -0.30666921      -1.47358560       0.96567372
C       -1.17696221       1.77130140       0.76148272
O       -1.08956821       1.25176740      -0.54820128
H       -0.25123421      -3.20724860       1.77959072
H        1.80677579      -2.27463160      -0.14787628
H        0.58936979       2.06017340      -2.23386728
H        3.06383379      -1.52173060      -2.38778028
H        2.71547179       0.73282740      -2.99499728
H       -2.67816121       2.58680540       1.82374472
H       -3.32415721       1.86027640       0.36710072
H       -2.65378921       0.74400140       1.55912172
