21
Properties=species:S:1:pos:R:3 -405682.1042355031=T pbc="F F F"
C        1.78277593      -1.39251093      -0.60189940
C        0.86241793       0.98291207      -1.55594340
C        2.62452993      -0.56908093      -1.39094140
C        2.16759393       0.71365607      -1.73051740
C       -2.65483307       2.46348107       0.57506460
C        0.51331693      -0.90744793      -0.04818640
C       -0.02388107       0.21779007      -0.68939840
O        0.34755193      -1.81814693       2.10641260
O       -0.41870607       2.03586107       1.03277460
O       -1.29384307      -2.42082493       0.61607260
C       -0.15549407      -1.70794593       0.95006960
C       -1.37720507       1.78232207       0.39372460
O       -1.34142507       0.70793907      -0.50618040
H       -1.64560207      -2.91651293       1.40774760
H        2.05362193      -2.40477393      -0.38297740
H        0.46457793       1.91554107      -1.92117840
H        3.52477693      -1.05965593      -1.81684040
H        2.85555593       1.38135707      -2.17860740
H       -2.54899707       2.81225707       1.69093060
H       -2.69407507       3.39939107      -0.02905140
H       -3.57924107       1.75125507       0.45924160
