21
Properties=species:S:1:pos:R:3 -405669.77661834843=T pbc="F F F"
C        1.60582034      -1.53476154      -0.65334959
C        0.90902534       0.98499646      -1.54603559
C        2.55991534      -0.80056854      -1.48397359
C        2.17557934       0.47816346      -1.82834459
C       -2.60528066       2.08051746       1.41285041
C        0.41326734      -0.95593554      -0.12594659
C        0.09580134       0.31894446      -0.64757059
O       -0.76015266      -1.25403054       1.85154441
O       -0.44472266       2.84098146       0.62466841
O       -0.33841766      -3.09620454       0.32194541
C       -0.23783966      -1.71446154       0.81931041
C       -1.23164666       1.95166646       0.64312941
O       -1.14297166       0.80187446      -0.13415359
H       -1.05807866      -3.52664254       0.70857241
H        1.58167634      -2.60729654      -0.56496959
H        0.48307634       1.91941846      -2.01264459
H        3.36189334      -1.45453554      -1.98953859
H        2.90263734       0.91935546      -2.47486759
H       -3.23303166       1.80563246       0.63549041
H       -2.59830066       1.37948646       2.28651141
H       -2.67930466       3.16380346       1.73321441
