21
Properties=species:S:1:pos:R:3 -405702.3537643523=T pbc="F F F"
C        1.95574849      -1.11621820      -0.40349764
C        0.71539449       1.00939580      -1.64262364
C        2.41989649      -0.62365420      -1.62171364
C        1.78506449       0.43747480      -2.28630464
C       -3.03789751       1.60277380       0.68434336
C        0.87456249      -0.52567820       0.25367036
C        0.32105449       0.60309080      -0.37914564
O        1.07163549      -1.88034520       2.27353736
O       -1.98458451       0.21726180      -1.11475864
O       -0.92569751      -0.86088620       1.73285936
C        0.39366349      -1.19167120       1.54927336
C       -1.89923951       1.00516680      -0.19390264
O       -0.62663551       1.40881980       0.27700436
H       -1.13287851      -1.26226120       2.60769236
H        2.33489649      -1.97879120      -0.02874264
H        0.29358949       1.91635680      -2.04244764
H        3.31364049      -1.06961320      -2.12299864
H        2.09067149       0.87114380      -3.28995764
H       -3.98237051       1.15969480       0.35331536
H       -2.83185051       1.08576080       1.60328636
H       -2.97012051       2.67965280       0.73360336
