21
Properties=species:S:1:pos:R:3 -405682.4231952563=T pbc="F F F"
C        2.06187625      -1.04264532      -0.32907335
C        0.97686325       1.16268168      -1.66279435
C        2.77424725      -0.39622432      -1.33092135
C        2.16370125       0.69663068      -2.08022835
C       -3.22187975       1.54510868       0.10035765
C        0.87899125      -0.46568432       0.31119665
C        0.33445525       0.67306268      -0.49232835
O       -0.48600975      -0.26308032       2.25741065
O       -2.13656775      -0.34899132      -0.81758235
O        0.44779225      -2.30197432       1.90212765
C        0.18415825      -1.03009332       1.57706065
C       -2.05645375       0.64322668      -0.22546335
O       -0.80685875       1.35953568      -0.03971035
H       -0.11152375      -2.54700832       2.75278965
H        2.35167425      -1.86068632       0.41727165
H        0.50899425       1.96259768      -2.21330735
H        3.67842325      -0.79641232      -1.75755235
H        2.65185825       1.23601768      -2.89404135
H       -2.83640275       2.50079468       0.24161365
H       -3.89324875       1.60907668      -0.78077435
H       -3.79880575       1.30047968       1.02629465
