21
Properties=species:S:1:pos:R:3 -405683.77226603497=T pbc="F F F"
C        1.99513957      -1.21679240      -0.39871595
C        0.82359957       1.17431260      -1.47424195
C        2.49595057      -0.53539040      -1.53637195
C        1.97280757       0.63896460      -2.07136395
C       -3.16298843       1.79009360       0.33724605
C        0.86925857      -0.56539240       0.24201205
C        0.24019357       0.57857060      -0.38431695
O        0.62596957      -2.40737340       1.95343405
O       -2.32837843       0.15028660      -1.36305095
O       -0.01592843      -0.38847240       2.41422405
C        0.54904957      -1.31216240       1.56622505
C       -2.10728643       0.91524660      -0.39712195
O       -0.91899143       1.18661460       0.21118205
H       -0.05598043      -0.92314340       3.20668605
H        2.55437957      -1.94391940       0.16630605
H        0.34572457       2.07565360      -1.75516995
H        3.35788357      -0.89210340      -2.14566795
H        2.26748957       1.23431760      -2.90141395
H       -4.14624043       1.35293660       0.36551505
H       -2.93515843       2.19120460       1.37298705
H       -3.29799443       2.58688260      -0.32990895
