21
Properties=species:S:1:pos:R:3 -405676.6722337014=T pbc="F F F"
C        1.82960761      -1.07764064      -0.45008362
C        1.16192961       1.28735936      -1.61377162
C        2.52421761      -0.68340564      -1.55339562
C        2.24529461       0.59059236      -2.13981862
C       -2.86814239       1.44818236       0.81586938
C        0.72347761      -0.41269464       0.04864638
C        0.25303361       0.73912536      -0.62116462
O        0.52277561      -2.20354364       1.64957338
O       -2.28988739      -0.42702664      -0.41138662
O       -0.34126439      -0.24176864       2.29443438
C        0.19164361      -1.06312764       1.35578038
C       -2.07941139       0.76547636      -0.16349062
O       -0.85776939       1.43581536      -0.25761462
H       -0.30719939      -0.93515964       3.07145538
H        2.07734561      -1.84949164       0.16867038
H        0.91651761       2.27637236      -2.04038262
H        3.11473261      -1.42362964      -2.16956462
H        2.82450161       0.99990736      -3.03694462
H       -2.31811039       1.08046136       1.68195438
H       -2.81711139       2.53399736       0.90884038
H       -3.82462439       1.13830936       0.89375138
