21
Properties=species:S:1:pos:R:3 -405684.03105395567=T pbc="F F F"
C        1.99544195      -1.11329477      -0.33702013
C        0.65233295       1.04353823      -1.48384013
C        2.51171195      -0.53976077      -1.49653713
C        1.82038695       0.50762523      -2.15946513
C       -3.17540705       1.80801523       0.22486087
C        0.87828095      -0.50831877       0.29652787
C        0.23192695       0.50408523      -0.32437513
O        0.83034595      -2.40198977       1.68591587
O       -2.16662805       0.24020223      -1.37532313
O       -0.14143905      -0.45590577       2.59715587
C        0.50130795      -1.22280477       1.58326587
C       -2.07991805       1.03333823      -0.39114913
O       -0.88914405       1.18522823       0.33755987
H       -0.15239005      -1.00452377       3.37998887
H        2.49279295      -1.93671677       0.28827087
H        0.29990495       1.87118123      -2.09826613
H        3.35097295      -0.99090377      -1.99335413
H        2.17919795       0.76771623      -3.17902213
H       -4.00221005       1.11678023       0.06108587
H       -3.00059205       2.15382123       1.17421687
H       -3.32575705       2.74874323      -0.46639413
