21
Properties=species:S:1:pos:R:3 -405686.19315286656=T pbc="F F F"
C        2.12495671      -0.87147250      -0.04356858
C        1.19145871       1.29690750      -1.60098858
C        2.85139671      -0.40569850      -1.14479458
C        2.41292971       0.66871750      -1.87960158
C       -3.14967829       1.46999150       0.26881442
C        0.80344771      -0.37011850       0.13502642
C        0.32950071       0.70824450      -0.60099858
O        0.00239871      -0.17024050       2.45226342
O       -2.38996529      -0.66717750      -0.43806258
O       -0.16673529      -2.11652050       1.22532442
C        0.19704671      -0.83198850       1.45821942
C       -2.13526229       0.49477150      -0.24729558
O       -0.89825229       1.16067950      -0.33328558
H       -0.18468329      -2.65274950       2.06240842
H        2.54169871      -1.66324350       0.53634742
H        1.00885771       2.19473850      -2.12554558
H        3.79793471      -0.88431750      -1.50977158
H        2.95043071       0.91528550      -2.80236458
H       -3.45453929       1.06205650       1.31965042
H       -2.79825929       2.52483750       0.19839242
H       -4.14546429       1.25265050      -0.28156158
