21
Properties=species:S:1:pos:R:3 -405679.15144174884=T pbc="F F F"
C        2.05448431      -1.11964583      -0.36831519
C        0.80373031       1.01599117      -1.58236819
C        2.55474031      -0.56744483      -1.60155119
C        1.92066731       0.52702617      -2.22803719
C       -3.05677369       1.86547217       0.54304681
C        0.84822731      -0.66716983       0.16068981
C        0.27462531       0.46837917      -0.41091219
O        0.99245531      -1.20386283       2.50345581
O       -2.08987069       0.50104217      -1.10851719
O       -0.92802469      -1.80412283       1.49023481
C        0.37879831      -1.31815083       1.45364681
C       -1.97251669       1.11560717      -0.05489119
O       -0.68651269       1.26750617       0.35512581
H       -0.95169269      -2.25590483       2.39933381
H        2.64950831      -1.93786883       0.15223681
H        0.28172131       1.81256317      -2.03637719
H        3.51488731      -0.57431483      -2.06327219
H        2.29972431       0.79939617      -3.22431519
H       -3.02955169       2.88058517       0.31721381
H       -3.97973869       1.41113717       0.07416781
H       -3.06138469       1.81739417       1.63846381
