21
Properties=species:S:1:pos:R:3 -405667.5252506373=T pbc="F F F"
C        1.75024416      -1.51815360      -0.78351460
C        0.90127216       1.01490040      -1.57643260
C        2.44447116      -0.78247960      -1.71819360
C        1.88122616       0.36990940      -2.24370960
C       -2.63303584       2.37604340       0.56797340
C        0.48491816      -1.03630560      -0.26173260
C        0.17159516       0.30063340      -0.62475060
O       -1.28271284      -1.32389160       1.43529840
O       -0.39427584       2.45623140       1.74398340
O        0.10113416      -2.99791260       0.92768440
C       -0.44353084      -1.79842660       0.73598640
C       -1.23800484       1.96626040       0.99534540
O       -0.85927984       0.99478040      -0.11254960
H       -0.60036184      -3.33527660       1.48401440
H        2.12362416      -2.54455460      -0.68379460
H        0.41663316       1.88495040      -2.01451060
H        3.36946716      -1.18075760      -2.11009060
H        2.50356616       0.89683640      -3.03735660
H       -2.82860484       3.22409040       1.14246340
H       -2.61170684       2.67909340      -0.44417960
H       -3.24588284       1.57029040       0.72012440
