21
Properties=species:S:1:pos:R:3 -405675.62466595153=T pbc="F F F"
C        2.00267399      -1.20071876      -0.50738714
C        0.89723699       1.23036424      -1.46513414
C        2.57181199      -0.59132176      -1.57340114
C        2.06375499       0.75480024      -2.00285714
C       -2.77598901       2.09112824       0.34180886
C        0.77532299      -0.67880076       0.04463586
C        0.23875599       0.46193024      -0.49970814
O        1.19543399      -1.85973976       2.10647186
O       -2.58250801      -0.02679076      -0.78187114
O       -0.82629001      -0.89887976       1.96830986
C        0.45252099      -1.28622376       1.43690486
C       -2.16950101       0.90115824      -0.15157014
O       -0.78126401       1.09269324       0.14246386
H       -0.69073801      -0.92268376       2.94867686
H        2.24219999      -2.11287376      -0.11821814
H        0.61534499       2.21565224      -1.83606614
H        3.47233199      -0.86434476      -1.96129914
H        2.55842199       1.16237724      -2.86807514
H       -2.22145901       3.00771124       0.33390486
H       -3.62968401       2.28301924      -0.33128914
H       -3.12059501       2.06474024       1.42319586
