21
Properties=species:S:1:pos:R:3 -405688.37039200665=T pbc="F F F"
C        2.10424767      -1.10334904      -0.31999725
C        0.76930667       1.01983396      -1.59423125
C        2.50885367      -0.72204704      -1.56027425
C        1.97925167       0.50002396      -2.11521025
C       -3.04217733       1.99282596       0.51859475
C        0.88248267      -0.57076904       0.25476875
C        0.23555367       0.44292196      -0.37817125
O        1.03165067      -1.31296604       2.63598775
O       -2.28776533       0.59035696      -1.24049425
O       -0.77905133      -1.79643804       1.34526275
C        0.39687267      -1.18206504       1.52566275
C       -2.02893433       1.13152496      -0.20065925
O       -0.70688733       1.13899096       0.32798275
H       -0.94678433      -2.19571004       2.22324975
H        2.53121567      -1.95801104       0.17956075
H        0.33697567       1.90702096      -1.95880325
H        3.28836067      -1.12408204      -2.14941925
H        2.46403667       0.79942696      -3.02745425
H       -3.88999633       2.15006896      -0.04575125
H       -3.10857033       1.48234796       1.48433975
H       -2.46778633       2.87520896       0.66484175
