21
Properties=species:S:1:pos:R:3 -405693.58606239816=T pbc="F F F"
C        2.08037581      -1.17259292      -0.36177034
C        0.65105281       0.69810508      -1.63184934
C        2.54196281      -0.63534592      -1.55777334
C        1.82775181       0.31149208      -2.21508234
C       -2.98168319       1.71814308       0.77931766
C        0.86050781      -0.75516192       0.26877466
C        0.20698881       0.31668708      -0.38827834
O        1.32768381      -1.92834392       2.30423966
O       -2.30202219       1.50168908      -1.51756134
O       -0.76911219      -1.03053092       1.95910566
C        0.54920881      -1.27938392       1.60462066
C       -2.06173919       1.34420808      -0.33692034
O       -0.87149319       0.82666308       0.21392266
H       -0.95609519      -1.44145492       2.83576166
H        2.75265281      -1.83789892       0.28298566
H        0.03842681       1.30039908      -2.29581234
H        3.53251681      -0.85241092      -1.95237434
H        1.99968981       0.73423308      -3.21254634
H       -3.76538119       2.49790008       0.51547366
H       -3.53148019       0.82675108       1.11917666
H       -2.32003919       2.27641008       1.44449466
