21
Properties=species:S:1:pos:R:3 -405673.808986701=T pbc="F F F"
C        1.72266312      -1.09180173      -0.31034831
C        1.06057012       1.31073127      -1.34542531
C        2.48932012      -0.48385473      -1.34530331
C        2.26820512       0.80102027      -1.90166931
C       -3.24393388       1.32067427      -0.10629431
C        0.71314812      -0.35568773       0.29759269
C        0.36369912       0.82321027      -0.36484731
O       -0.20293688      -0.35603473       2.55057369
O       -1.85503988      -0.46724673      -0.88192831
O        0.19344512      -2.27998273       1.40779069
C        0.28785612      -0.85946173       1.61094269
C       -1.94293388       0.62598827      -0.30322731
O       -0.81470988       1.40069927      -0.02672631
H       -0.16764988      -2.67348473       2.18396369
H        2.22944212      -1.95163873       0.23608669
H        0.61639112       2.22254227      -1.78854731
H        3.24859012      -1.17052373      -1.66189331
H        2.96047612       1.25195927      -2.61728131
H       -4.00135988       0.76089427      -0.70019931
H       -3.57182488       1.26203727       0.99023869
H       -3.06922088       2.42413727      -0.17164131
