21
Properties=species:S:1:pos:R:3 -405674.40262147156=T pbc="F F F"
C        2.14520444      -0.91079426      -0.03355586
C        1.16432944       1.20891774      -1.64753386
C        2.93936744      -0.42153926      -1.08331086
C        2.51370844       0.67870774      -1.83837786
C       -3.28473956       1.52023674       0.32332914
C        0.84652244      -0.29019726       0.16854214
C        0.20275544       0.60614274      -0.67499086
O        0.13615544      -0.27005226       2.44665114
O       -2.40060656      -0.63583426      -0.46457186
O       -0.09609656      -2.11463326       1.24881814
C        0.19948844      -0.83677126       1.39914814
C       -2.24337256       0.52859474      -0.18712586
O       -0.94883156       1.23930174      -0.41927686
H       -0.84714356      -2.38102126       1.88067914
H        2.57176744      -1.77382826       0.55072214
H        0.84263244       2.10391574      -2.29861286
H        3.91565944      -0.80830226      -1.24422286
H        3.27650844       1.27594774      -2.39218586
H       -3.47185956       1.44635274       1.48618914
H       -2.90053556       2.46301574      -0.08267186
H       -4.24623556       1.13767374       0.03117114
