21
Properties=species:S:1:pos:R:3 -405682.5708140847=T pbc="F F F"
C        1.96561635      -1.34450610      -0.34292193
C        1.54583535       1.43681890      -0.28430393
C        2.71171235      -0.55957710      -1.10678393
C        2.54126335       0.79832190      -1.04915793
C       -2.83401765       2.33411590       0.54764107
C        0.75982935      -0.80110210       0.26807907
C        0.47087735       0.63937490       0.16310107
O       -1.47362465      -1.47146410       0.43325807
O       -1.78968465       0.98705190      -1.32001993
O        0.16661635      -2.83267610       1.14396807
C       -0.32325365      -1.70476110       0.68704807
C       -1.82983965       1.42318290      -0.15170693
O       -0.70720665       1.33229890       0.68758307
H       -0.63263465      -3.40556810       1.43282407
H        2.14121935      -2.39193810      -0.27800793
H        1.48564535       2.54704990      -0.30160393
H        3.50308035      -0.82312810      -1.82280193
H        3.37922335       1.44853690      -1.42511993
H       -3.83847465       2.59973490       0.09056207
H       -3.00353765       1.87475590       1.57647407
H       -2.29354765       3.19520190       0.84301107
