21
Properties=species:S:1:pos:R:3 -405682.9830318278=T pbc="F F F"
C        2.06468481      -1.00644223      -0.26099176
C        0.92586081       1.26472977      -1.46201776
C        2.53976481      -0.62137023      -1.50966976
C        2.00592081       0.61958077      -2.09761076
C       -3.23853519       1.76214177      -0.22309476
C        0.87316981      -0.44972723       0.30280924
C        0.33290581       0.73988177      -0.29652676
O       -0.58364019      -0.55610523       2.38087224
O       -2.20165819      -0.38929823      -0.94601476
O        0.90610681      -2.14592923       2.03981524
C        0.32988581      -0.98680823       1.63406324
C       -2.07358719       0.70618077      -0.46005676
O       -0.89742519       1.30159777       0.04252724
H        0.65373281      -2.09197623       3.01727624
H        2.43823681      -1.84139223       0.31502224
H        0.61012581       2.30950377      -1.65044376
H        3.18139281      -1.18672623      -2.15286576
H        2.55476781       0.89121277      -2.96243076
H       -2.76533219       2.71644177      -0.33013676
H       -4.03173219       1.79082377      -0.89924876
H       -3.34478119       1.66746877       0.91201524
