21
Properties=species:S:1:pos:R:3 -405683.88013636816=T pbc="F F F"
C        2.10615298      -0.93680696      -0.41301079
C        0.81462498       1.06676104      -1.74358979
C        2.53404898      -0.63307996      -1.67250579
C        1.83788798       0.37278104      -2.33450079
C       -3.13821302       1.31761904       0.85956821
C        0.93920698      -0.43968196       0.23575121
C        0.33607198       0.70820004      -0.46498479
O        0.86225498      -2.13655796       2.12048221
O       -2.16311702       0.26288104      -1.14069079
O       -0.63869002      -0.52616296       2.04793121
C        0.39340798      -1.18549696       1.52492421
C       -2.02898202       0.87590904      -0.14464479
O       -0.74042502       1.36065904       0.19412221
H       -0.87787702      -1.09730496       2.87036821
H        2.75256498      -1.55936396       0.12571721
H        0.31461098       1.81507104      -2.40821979
H        3.25455198      -1.22177696      -2.10191479
H        2.27158398       0.56046704      -3.34669479
H       -4.06510802       1.80066204       0.28425921
H       -3.60503802       0.52785304       1.33773521
H       -2.68907902       2.01928704       1.55471221
