21
Properties=species:S:1:pos:R:3 -405686.6509898876=T pbc="F F F"
C        1.89688620      -1.23746642      -0.60932022
C        1.59289020       1.54415558      -0.15942622
C        2.86496120      -0.38207642      -0.97438122
C        2.73584820       0.96860458      -0.53661822
C       -2.74396780       2.18382058       0.47326478
C        0.64797920      -0.74710442      -0.11359422
C        0.50597020       0.66893658       0.03072978
O       -1.23428080      -1.21855042       1.31993578
O       -1.97107680       0.52542058      -1.07050722
O       -0.32621080      -3.00442942       0.36607478
C       -0.42339580      -1.64578042       0.52237578
C       -1.75312180       1.20489458      -0.12863722
O       -0.51527880       1.47241858       0.49328978
H       -1.06418680      -3.25105842       1.02033078
H        1.99715520      -2.35321242      -0.69097022
H        1.52132620       2.61057958      -0.05130522
H        3.80188420      -0.85150642      -1.23177922
H        3.60057820       1.58971358      -0.79288822
H       -2.23700280       3.03494558       0.84440078
H       -3.43574880       2.43391058      -0.23323822
H       -3.35015180       1.64374458       1.34603478
