21
Properties=species:S:1:pos:R:3 -405678.82631829736=T pbc="F F F"
C        2.19270779      -0.87779207      -0.02185986
C        0.53905279       0.73716093      -1.72082686
C        2.54518079      -0.63334507      -1.32001886
C        1.75862979       0.13712493      -2.22816686
C       -3.12521221       1.77841493       0.39178414
C        0.95209479      -0.42930807       0.38326514
C        0.10130679       0.20078893      -0.48673486
O       -0.46903521      -1.79701007       1.78230114
O       -2.24601421       1.03509393      -1.76851786
O        1.36030879      -0.81789707       2.84627414
C        0.49118679      -1.03275507       1.65134914
C       -2.14322421       1.12037993      -0.54616686
O       -1.08012921       0.63024593       0.12647014
H        1.21044379      -1.66002707       3.42781014
H        2.79744579      -1.30794807       0.81695414
H       -0.28121221       1.28740293      -2.30609086
H        3.51600979      -1.19034007      -1.54335686
H        1.98132679       0.23214693      -3.23800486
H       -2.58896721       2.16336393       1.21394414
H       -3.59298521       2.62396693      -0.10180886
H       -3.83102921       1.00695693       0.73757814
