21
Properties=species:S:1:pos:R:3 -405694.0648600285=T pbc="F F F"
C        2.05055470      -1.27556258      -0.08596873
C        1.19581370       1.34581942      -0.95798073
C        2.71624370      -0.59676858      -1.06803973
C        2.36235470       0.71108842      -1.38463373
C       -2.97187430       1.86611742       0.49325227
C        0.78724170      -0.74090358       0.27965727
C        0.32601270       0.57597742      -0.09637573
O       -1.37125830      -1.43371958       1.31830627
O       -1.56765730       1.81462342      -1.59389273
O        0.39915170      -2.86707258       1.48312127
C       -0.18422330      -1.65121158       1.10693127
C       -1.75170830       1.62203042      -0.40884373
O       -0.84605930       0.94126342       0.44545327
H       -0.37176230      -3.22261058       1.93461227
H        2.32320270      -2.30645658       0.24563527
H        0.99475470       2.38621142      -1.24909873
H        3.62365270      -1.02792058      -1.57875273
H        2.94963570       1.10114642      -2.17429873
H       -3.46417630       2.75430542       0.15435427
H       -3.55350330       0.87082442       0.15083827
H       -2.70921230       1.85720842       1.54889827
