21
Properties=species:S:1:pos:R:3 -405687.10295297334=T pbc="F F F"
C        2.01282799      -1.09720384      -0.40095131
C        1.19127799       1.35371816      -1.36220731
C        2.66826299      -0.52691784      -1.53356931
C        2.21307199       0.64748816      -2.03373331
C       -2.86680901       2.16315416       0.55616269
C        0.85677899      -0.57175784       0.14364169
C        0.41784999       0.65122316      -0.35176931
O        0.68646999      -1.60979184       2.35618969
O       -2.47233501       0.11125916      -0.55742031
O       -1.01659901      -1.88323484       0.96199769
C        0.18272799      -1.40862784       1.24930069
C       -2.01914501       1.07065116       0.00546469
O       -0.60392401       1.33094016       0.21220169
H       -1.35928001      -2.38095484       1.71568569
H        2.39317799      -1.95619884       0.11798869
H        0.74983499       2.22867316      -1.75744231
H        3.61199399      -0.90357784      -1.82957531
H        2.74393999       1.14962816      -2.89359031
H       -3.29942101       1.78859316       1.41197269
H       -2.55878901       3.21591216       0.57524469
H       -3.66785001       2.23790616      -0.13883731
