21
Properties=species:S:1:pos:R:3 -405694.52384296665=T pbc="F F F"
C        1.87715776      -1.16319260      -0.26905057
C        1.51806476       1.50523740      -0.98025757
C        2.95778776      -0.45316260      -0.79667957
C        2.80548076       0.97301140      -1.15151457
C       -2.88287124       1.99457840       0.34212943
C        0.68476976      -0.57427660       0.10888743
C        0.53788576       0.71462940      -0.30839557
O       -0.81001124      -0.99736360       2.01164143
O       -2.12797524      -0.15371860      -0.60595957
O       -0.48405624      -2.63138560       0.41862243
C       -0.29981424      -1.34942460       0.96428343
C       -1.89106124       0.98781240      -0.16534757
O       -0.58644524       1.53301340      -0.02780657
H       -1.01070424      -3.20453360       1.08992743
H        2.01230176      -2.21268960      -0.17267457
H        1.21326176       2.49092940      -1.29658857
H        3.88228476      -1.00910160      -0.99968757
H        3.69731476       1.39921740      -1.68648957
H       -3.78701124       1.84682140      -0.23099557
H       -3.05745124       1.85216240       1.39791643
H       -2.52668424       3.16064240       0.24802143
