21
Properties=species:S:1:pos:R:3 -405694.52980553237=T pbc="F F F"
C        1.97895494      -1.08690515      -0.18938945
C        0.80136394       0.99650185      -1.56897445
C        2.41661794      -0.71292515      -1.48884245
C        1.92297494       0.43611485      -2.10439445
C       -3.25191606       1.40661285       0.13326855
C        0.97687594      -0.38807115       0.40739555
C        0.26957594       0.61814785      -0.34940145
O       -0.73245006      -0.49433815       2.08890855
O       -2.13221406      -0.03979415      -1.41291745
O        1.28084094      -1.56484515       2.29318155
C        0.35919094      -0.81706015       1.68831355
C       -2.06990406       0.69826785      -0.43694745
O       -0.89538906       1.08866385       0.15135055
H        0.99354594      -1.65625215       3.21148155
H        2.40910594      -2.00737115       0.24468455
H        0.35501494       1.72286585      -2.25149145
H        3.13154894      -1.33968915      -1.96841345
H        2.17913694       0.79751385      -3.11828345
H       -4.12358306       0.92933485      -0.29023545
H       -3.14592006       1.46777685       1.25226555
H       -2.97963606       2.41923885      -0.06151445
