21
Properties=species:S:1:pos:R:3 -405689.17313711357=T pbc="F F F"
C        2.09508957      -0.94621121      -0.26744504
C        0.99004057       1.17128179      -1.74155404
C        2.81534857      -0.37546421      -1.31343404
C        2.26707957       0.69319979      -2.05412104
C       -3.05502143       1.87667979       0.54074796
C        0.84527957      -0.45660621       0.06210096
C        0.28617857       0.60294679      -0.70261604
O        0.50892857      -2.41676421       1.54995296
O       -2.36186443      -0.40250221      -0.28351404
O       -0.39448143      -0.37134121       2.22375096
C        0.23269057      -1.27381421       1.26911796
C       -2.19062243       0.72984579       0.01219296
O       -0.90314643       1.28367379      -0.22018504
H       -1.04512743      -0.99391421       2.52740196
H        2.48923257      -1.77315721       0.31102896
H        0.55694257       2.04058579      -2.36192604
H        3.87334557      -0.78656621      -1.54672904
H        2.76030757       1.12202079      -2.95879804
H       -2.76703743       2.05669779       1.59409896
H       -2.70847843       2.79597979      -0.03813704
H       -4.19087243       1.72885979       0.52498096
