21
Properties=species:S:1:pos:R:3 -405693.21346021927=T pbc="F F F"
C        1.98376629      -1.13428975      -0.34709173
C        0.84762729       1.34862425      -1.40814273
C        2.47367729      -0.58327275      -1.51348473
C        1.90618529       0.66716625      -1.98578073
C       -3.17389071       1.59772825       0.37733627
C        0.73200329      -0.59983275       0.16291327
C        0.27747429       0.70058725      -0.29749373
O        0.77924829      -2.29934075       1.75311227
O       -1.89251371       0.11659325      -1.21203073
O       -0.58337071      -0.63830975       2.14262627
C        0.32774129      -1.23693075       1.41648027
C       -1.92751571       0.91428325      -0.29338873
O       -0.75914171       1.29654725       0.35618427
H       -0.60243071      -1.09061175       3.00137227
H        2.49707629      -2.00057475       0.16422627
H        0.48893029       2.27062625      -1.92130573
H        3.31218729      -1.09663475      -2.03612373
H        2.43462729       1.02982725      -2.83541573
H       -3.39094671       2.51717925      -0.17797373
H       -3.91837571       0.73721625       0.49589227
H       -2.88974671       1.89526825       1.36555527
