21
Properties=species:S:1:pos:R:3 -405678.8269470211=T pbc="F F F"
C        2.27632963      -0.83617209      -0.08886316
C        0.77478163       0.83521791      -1.72298916
C        2.71115863      -0.45073009      -1.30787116
C        1.97035263       0.34738891      -2.11949216
C       -2.97308837       1.56092191       0.92794884
C        0.97637763      -0.52376609       0.29380584
C        0.23877663       0.40011991      -0.54366716
O        1.03224163      -2.04681809       2.16387084
O       -2.39882137       1.12097991      -1.35578516
O       -0.95771637      -1.09500509       1.55942584
C        0.36588163      -1.21997309       1.45937584
C       -2.05349037       1.17766291      -0.23598516
O       -0.76043237       0.86401891       0.20210884
H       -1.38297837      -1.93037109       1.94083084
H        2.87188463      -1.41825109       0.51011784
H        0.20641763       1.49037291      -2.33310516
H        3.80430163      -0.58299409      -1.50343916
H        2.18505163       0.58101591      -3.12070016
H       -3.77366737       2.24851591       0.63480084
H       -3.56457137       0.60375691       1.11243284
H       -2.43508137       1.99980791       1.71918984
