21
Properties=species:S:1:pos:R:3 -405692.45727195416=T pbc="F F F"
C        2.01414836      -1.21391702      -0.26192668
C        1.39188436       1.29709398      -1.02379968
C        2.87654036      -0.54993702      -1.13818268
C        2.51489536       0.70905598      -1.51073268
C       -2.99773364       1.88914198       0.49786632
C        0.78313736      -0.61994902       0.24356532
C        0.42033036       0.69237498      -0.21191968
O       -1.08078964      -0.89475602       1.68292232
O       -2.07697364       0.65738898      -1.29641868
O        0.16552436      -2.82090302       1.22705432
C       -0.12205064      -1.48084102       1.12289032
C       -1.90012564       1.19118998      -0.23757168
O       -0.71727364       1.41274098       0.35279432
H       -0.62297664      -3.26975902       1.70818532
H        2.17320636      -2.24471202      -0.02048468
H        1.08125336       2.27557898      -1.26687368
H        3.84621936      -0.93216902      -1.41720268
H        3.23106936       1.30777198      -2.14655668
H       -3.61588064       2.54355798      -0.19724668
H       -3.77146864       1.06485898       0.79639332
H       -2.75699264       2.57840898       1.33930732
