21
Properties=species:S:1:pos:R:3 -405683.9321276337=T pbc="F F F"
C        1.94262618      -1.11179253      -0.56293637
C        0.98063018       1.34416747      -1.58267637
C        2.62201718      -0.52175153      -1.70027637
C        2.15983718       0.72255747      -2.14194437
C       -3.09005982       1.82740347       0.05965463
C        0.90331418      -0.49637353       0.03249763
C        0.35306418       0.69121847      -0.48508037
O        0.17272118      -2.29620253       1.49023663
O       -2.27380882      -0.53937053       0.25846863
O       -0.05926682      -0.23680353       2.18206063
C        0.25185018      -1.10187853       1.27499463
C       -2.07806982       0.58785547       0.02238463
O       -0.78227582       1.23159547       0.14251463
H       -0.38569582      -0.78662853       2.91863663
H        2.14138818      -2.11844353      -0.20320937
H        0.50722318       2.17966447      -2.07399837
H        3.58192618      -0.88024553      -2.10081937
H        2.41897718       1.18486247      -3.13467837
H       -3.65147682       1.68609247       1.03906563
H       -2.38100982       2.72607247       0.26116463
H       -3.69527282       2.10716647      -0.82511737
