21
Properties=species:S:1:pos:R:3 -405692.5881716127=T pbc="F F F"
C        1.94512412      -1.30641405      -0.27798977
C        1.57328512       1.47444595      -0.57122177
C        2.89300212      -0.50023705      -0.87661377
C        2.73804612       0.83729595      -1.05264277
C       -2.85804488       1.64933895       0.71943723
C        0.82525512      -0.75448405       0.34216723
C        0.56861012       0.66614395       0.12717323
O       -1.51207788      -1.02437205       0.80371723
O       -1.88731788       1.02939295      -1.39553377
O       -0.16618088      -2.84248905       0.85849123
C       -0.38171788      -1.49905805       0.74519423
C       -1.82032788       1.25582795      -0.20470377
O       -0.56614588       1.30728895       0.53180223
H       -1.09900688      -3.20545405       0.99155923
H        2.10665912      -2.43045505      -0.32240777
H        1.28932812       2.54605295      -0.73846177
H        3.66081612      -0.94443205      -1.47562877
H        3.58783112       1.29763895      -1.55897477
H       -3.57287388       2.32365595       0.30758323
H       -3.45862788       0.81571295       1.15370223
H       -2.22859688       2.17785895       1.46286423
