21
Properties=species:S:1:pos:R:3 -405681.102616136=T pbc="F F F"
C        1.99250916      -1.31503996      -0.41567747
C        1.54821216       1.41112704      -0.64685447
C        3.02441516      -0.44234996      -0.54209247
C        2.79397816       0.94063704      -0.73157247
C       -2.81756684       1.70105204       0.70542453
C        0.68871816      -0.82066096      -0.03050647
C        0.51859716       0.56503204      -0.13593247
O       -1.26671884      -1.06622896       1.46377153
O       -1.89641684       1.20242804      -1.45636847
O       -0.39900284      -2.94857896       0.48646753
C       -0.43597084      -1.58457396       0.69029153
C       -1.82103484       1.36924604      -0.27583947
O       -0.60259484       1.28398004       0.49167453
H       -1.11035184      -3.42442196       1.02058653
H        2.21890216      -2.38192096      -0.19552447
H        1.41485616       2.43121704      -1.00546747
H        3.97374216      -0.87622696      -0.67633847
H        3.57278316       1.61183804      -1.06285547
H       -2.66787784       0.96880704       1.64383853
H       -2.90714284       2.78419904       0.78305353
H       -3.78817684       1.41968004       0.31566753
