21
Properties=species:S:1:pos:R:3 -405677.3889289142=T pbc="F F F"
C        1.97759188      -1.16375020      -0.41228996
C        1.02011188       1.19974780      -1.70347196
C        2.56728088      -0.83059520      -1.59867896
C        2.14457088       0.49743380      -2.13387896
C       -2.98393712       1.24816680       0.88993004
C        0.87091588      -0.43229620       0.15542404
C        0.45112288       0.82055780      -0.44560296
O       -0.05311912      -2.20342820       1.57482704
O       -2.36306112      -0.02404520      -1.02076996
O       -0.07064312      -0.09622720       2.29479204
C        0.23951988      -1.03779320       1.34771404
C       -1.98782212       0.71055680      -0.08320196
O       -0.69197512       1.32931380       0.16312304
H       -0.50915312      -0.39679620       3.08376004
H        2.54054188      -1.92228020       0.26158904
H        0.63434688       2.16818680      -2.20461296
H        3.48408788      -1.36324820      -1.98206296
H        2.76711488       0.97284180      -2.93883896
H       -2.53230312       1.54858580       1.82363804
H       -3.35551612       2.16907980       0.48966904
H       -3.77096212       0.55522380       1.10215404
