21
Properties=species:S:1:pos:R:3 -405684.7821284407=T pbc="F F F"
C        1.71540052      -1.46290616      -0.62977552
C        0.81926052       0.86078084      -2.02449052
C        2.43288252      -0.92079716      -1.79302152
C        1.89263652       0.13864684      -2.50135952
C       -2.52472148       1.92742684       1.24964348
C        0.46505252      -0.77544216      -0.28520752
C        0.13751152       0.46182884      -0.88397052
O       -1.61054048      -1.08777316       0.94710648
O       -0.20996048       1.66095584       1.85840948
O        0.30661352      -2.20672916       1.52271748
C       -0.44082748      -1.30258316       0.77351748
C       -1.09365748       1.64265284       1.04371948
O       -0.98049648       1.10780484      -0.38788052
H       -0.28110648      -2.76697016       2.07378248
H        2.09970452      -2.37281016      -0.04771652
H        0.31196452       1.75601984      -2.50441152
H        3.35996252      -1.35186116      -2.13919152
H        2.41871852       0.72463784      -3.27991152
H       -3.00421648       2.19504384       2.17754148
H       -2.90905848       2.47811984       0.37219448
H       -2.93362648       0.89950184       0.95218448
