21
Properties=species:S:1:pos:R:3 -405680.1893602259=T pbc="F F F"
C        1.82122167      -1.25509385      -0.54964271
C        0.93486867       1.31817115      -1.31002971
C        2.40133667      -0.66358485      -1.67162071
C        1.99504267       0.65300015      -2.04392771
C       -3.10136533       2.23374515       0.07570629
C        0.82684967      -0.60780285       0.25507929
C        0.27728667       0.62742315      -0.27462571
O        1.36212567      -2.12858785       1.97744229
O       -2.45685833      -0.05302485      -0.95749971
O       -0.44248533      -0.89478985       2.14470729
C        0.64331767      -1.22048685       1.56190129
C       -2.25649333       0.97655315      -0.31127871
O       -0.96314633       1.13904115       0.26088529
H       -0.60263033      -1.40327585       2.95317929
H        2.05401767      -2.27402185      -0.23846771
H        0.64350567       2.30313815      -1.51976071
H        3.13029767      -1.18081585      -2.24406871
H        2.23234367       1.23229315      -2.90259771
H       -2.96806433       2.41563515       1.21881129
H       -2.85467833       3.09130215      -0.50854971
H       -4.12695633       2.01209715      -0.30070971
