21
Properties=species:S:1:pos:R:3 -405686.4537437203=T pbc="F F F"
C        2.00107772      -1.24493861      -0.03804060
C        1.20996872       1.10958939      -1.12698660
C        2.99673772      -0.47593061      -0.81865460
C        2.51072572       0.62998239      -1.51476360
C       -2.88670428       1.83256839       0.78707240
C        0.70176372      -0.78764261       0.19704540
C        0.29154272       0.44330139      -0.29516160
O       -1.50170128      -1.76490161       0.78767740
O       -1.81806028       1.93168139      -1.47639960
O        0.40596372      -2.51580461       1.80717140
C       -0.33579928      -1.72844561       1.02587540
C       -1.73490728       1.66684139      -0.26485160
O       -0.71484628       1.09049939       0.34916640
H       -0.05525728      -3.30506761       2.12611240
H        2.22903472      -2.09935461       0.58506940
H        0.89735272       2.15338139      -1.33570860
H        3.97159972      -0.85322661      -1.00497160
H        3.13086172       1.16478639      -2.30787060
H       -3.53012728       2.66775639       0.36092740
H       -3.33966728       0.85160539       1.00619140
H       -2.32447328       2.18458839       1.66885240
