21
Properties=species:S:1:pos:R:3 -405681.3409588543=T pbc="F F F"
C        2.28608266      -0.99384422      -0.23601373
C        0.60693266       0.93515278      -1.62248273
C        2.41991466      -0.66709822      -1.63812573
C        1.64575366       0.35318578      -2.32314773
C       -3.02010934       1.95471278       0.53457927
C        1.06935166      -0.47673822       0.37772527
C        0.29177866       0.49708478      -0.37385073
O        1.12833066      -1.78110722       2.41850027
O       -2.21960634       0.45779078      -1.22124673
O       -0.85485334      -1.22670722       1.56491327
C        0.51197866      -1.20676522       1.55750227
C       -1.99034234       1.17618178      -0.16617273
O       -0.72380034       1.14513078       0.35446627
H       -1.00953734      -1.90666922       2.31241527
H        2.81358766      -1.69393722       0.37498927
H       -0.06663434       1.61973778      -2.24956673
H        3.31636666      -1.05524322      -2.09255073
H        1.82885466       0.54024478      -3.41198273
H       -3.85844834       1.23277278       0.44243127
H       -2.70185034       2.13584478       1.53564827
H       -3.44867334       2.70790878      -0.05720873
