21
Properties=species:S:1:pos:R:3 -405673.36162533134=T pbc="F F F"
C        1.83167145      -1.21658653      -0.21110786
C        1.60561545       1.51982047      -0.61747186
C        2.91227645      -0.51928053      -0.74366586
C        2.80685245       0.85660447      -0.98782786
C       -2.59380055       1.77889947       1.00563414
C        0.62723545      -0.61851153       0.18683414
C        0.52964845       0.74493047      -0.06205086
O       -1.61405655      -1.21936753       0.79297414
O       -2.10872655       0.91129547      -1.32111086
O        0.05624445      -2.82881453       0.75877914
C       -0.43508155      -1.54125053       0.56238614
C       -1.82179255       1.17006047      -0.18128686
O       -0.55926955       1.35738347       0.42043914
H       -0.64683055      -3.29744153       1.20787514
H        2.04174745      -2.29278753       0.06495814
H        1.59233945       2.62357347      -0.78233486
H        3.84354945      -1.03762153      -0.75711086
H        3.62111945       1.21888747      -1.57265986
H       -3.17909355       0.73773947       1.34616914
H       -1.92558255       1.90697747       1.98425014
H       -3.32314755       2.48906147       0.66070114
