21
Properties=species:S:1:pos:R:3 -405692.79350255366=T pbc="F F F"
C        2.21426395      -0.84473060      -0.14525046
C        0.70408395       0.91633540      -1.72640546
C        2.64247595      -0.50399660      -1.45233646
C        1.90873995       0.48022540      -2.21308446
C       -3.24383305       1.98609640       0.24463454
C        0.96915695      -0.49699260       0.34817254
C        0.21186595       0.42302340      -0.44311846
O        1.15954295      -2.22601460       2.06806854
O       -2.48691005       0.16732040      -1.10194046
O       -0.49245305      -0.70905660       2.14876654
C        0.60027895      -1.24164760       1.59874654
C       -2.23260805       0.97232140      -0.29088346
O       -0.86237605       1.18813440       0.13364454
H       -0.65302805      -1.38564660       2.84070054
H        2.90205495      -1.58823360       0.31067054
H        0.01101395       1.61772940      -2.18688846
H        3.44047795      -1.02239960      -1.93852646
H        2.30478695       0.95075940      -3.16405346
H       -3.39284305       1.58338740       1.26692654
H       -2.86845605       3.00475040       0.25925354
H       -4.11703305       1.77921540      -0.37055046
