21
Properties=species:S:1:pos:R:3 -405679.27567876526=T pbc="F F F"
C        1.87143897      -1.27989039      -0.28358849
C        1.33514897       1.41183761      -0.50619149
C        2.93250997      -0.46699539      -0.87114549
C        2.60611697       0.92639061      -0.96825549
C       -2.85203103       2.22759461       0.45331551
C        0.66402697      -0.72954839       0.22818751
C        0.44472497       0.57627961       0.19515451
O       -1.13572503      -1.37813839       1.59887451
O       -1.58314703       1.13423361      -1.40417649
O       -0.17152403      -2.91752439       0.06604151
C       -0.38880403      -1.62578839       0.67566351
C       -1.67864803       1.44513761      -0.21920749
O       -0.81078603       1.04449361       0.81547951
H       -0.79723103      -3.59097339       0.38672351
H        2.04558697      -2.35805439      -0.12777849
H        1.12801397       2.43769961      -0.71055749
H        3.87505997      -0.96864039      -1.22084149
H        3.31160297       1.54915561      -1.49874849
H       -3.05833503       3.16322061      -0.22292149
H       -3.82624703       1.54194961       0.20950951
H       -2.69205703       2.23426961       1.53629051
