21
Properties=species:S:1:pos:R:3 -405693.1264160955=T pbc="F F F"
C        1.63595979      -1.55120778      -0.81886483
C        0.99415579       1.03302422      -1.56226583
C        2.43853879      -0.91947778      -1.79281483
C        2.04889579       0.35929222      -2.21481683
C       -2.72558621       1.98957222       1.03616417
C        0.49818979      -0.89248878      -0.34259883
C        0.13086279       0.38926122      -0.68320983
O       -1.17760321      -0.91446278       1.41154017
O       -0.31839121       2.05878022       1.53199817
O        0.02370979      -2.80190578       1.05841317
C       -0.28493921      -1.40461778       0.79180017
C       -1.28362421       1.70743122       0.89813317
O       -1.04356021       0.99217922      -0.34200783
H       -0.61615421      -2.79212378       1.87285517
H        1.88759379      -2.48015578      -0.32964683
H        0.64776979       2.02436122      -1.88896983
H        3.30556879      -1.41281678      -2.22684283
H        2.62013479       0.74628122      -3.07423783
H       -2.75767421       2.68300422       1.95188317
H       -3.14673521       2.33282022       0.06650917
H       -3.11998721       0.99591322       1.36733817
