21
Properties=species:S:1:pos:R:3 -405684.92283156206=T pbc="F F F"
C        1.98700662      -0.97212470      -0.36725007
C        0.90216862       1.09639730      -1.56367007
C        2.52485962      -0.55622970      -1.56503607
C        1.94502062       0.49369730      -2.23277207
C       -3.05029038       1.84418530       0.22002493
C        0.98971662      -0.30867670       0.38229393
C        0.36040962       0.73397030      -0.35651407
O        0.63013162      -2.38399670       1.50620693
O       -2.12935538      -0.27897970      -0.47956607
O       -0.59750938      -0.56483970       2.18674593
C        0.33001562      -1.23886770       1.46524593
C       -2.03612438       0.87487030      -0.11125707
O       -0.69562738       1.42547530       0.10372593
H       -0.89743038      -1.27030970       2.78262293
H        2.43558962      -1.82672170       0.15159493
H        0.35408762       1.88955230      -2.15848207
H        3.25193862      -1.16176270      -2.09950807
H        2.16281462       1.01169530      -3.13156007
H       -2.98623938       2.80125830      -0.26329207
H       -4.00476138       1.56507230      -0.13866807
H       -3.06431638       2.17230030       1.37482293
