21
Properties=species:S:1:pos:R:3 -405670.50253257586=T pbc="F F F"
C        1.97966720      -1.22524551      -0.48769622
C        0.86095420       1.08278949      -1.60018822
C        2.40870920      -0.76574551      -1.65001022
C        1.82842620       0.36449149      -2.33464622
C       -2.95841480       1.74145649       0.75466978
C        0.84956520      -0.57000351       0.11065978
C        0.26585220       0.51740349      -0.49422022
O        1.10371320      -0.88534551       2.56184378
O       -2.21887280       0.38956449      -1.05605122
O       -0.76527780      -1.82507551       1.58551278
C        0.44251720      -1.11197351       1.50608278
C       -2.02966880       1.11832849      -0.11528822
O       -0.67538080       1.22827649       0.24625878
H       -1.16676280      -1.62034051       2.49698678
H        2.41442420      -2.12626751       0.03771478
H        0.48300020       1.97586649      -2.00876422
H        3.13638620      -1.49943551      -2.03248022
H        2.17764020       0.96518249      -3.09274422
H       -2.55204280       2.48907249       1.45392178
H       -3.71965280       2.29533049       0.10879078
H       -3.64174380       1.14989949       1.39302578
