21
Properties=species:S:1:pos:R:3 -405686.21241259994=T pbc="F F F"
C        1.83708000      -1.50130707      -0.48054609
C        0.95578300       1.15800993      -1.32236909
C        2.70540000      -0.65999907      -1.14403909
C        2.15762000       0.58850293      -1.62408409
C       -2.68456400       1.90230193       1.20404491
C        0.55918100      -0.97870207      -0.14975609
C        0.15488400       0.26159993      -0.55545809
O        0.43564100      -2.41038307       1.83113191
O       -0.89845600       2.97395293      -0.25657309
O       -1.46853600      -2.00190707       0.56466791
C       -0.13087600      -1.92777107       0.84362791
C       -1.43647300       2.00377793       0.28391991
O       -1.07546500       0.61867393       0.06448591
H       -1.87795700      -2.73571507       1.00828791
H        2.04012600      -2.55964407      -0.21866609
H        0.79142000       2.21596093      -1.60767809
H        3.76588900      -0.90032407      -1.42282209
H        2.85506200       1.27145293      -2.06055309
H       -3.34098000       1.21749093       0.69323691
H       -2.37814200       1.48022393       2.23528791
H       -3.16780300       2.94110593       1.45994791
