21
Properties=species:S:1:pos:R:3 -405668.8212730915=T pbc="F F F"
C        2.16921469      -1.01992841      -0.42909013
C        0.73171269       1.20745759      -1.49566913
C        2.20120069      -0.76386741      -1.73122013
C        1.59405269       0.43229359      -2.25145113
C       -3.02823031       2.00184559       0.36835687
C        0.94670569      -0.61853341       0.27064387
C        0.32111069       0.66502259      -0.24668613
O        1.37182969      -1.61403241       2.38491387
O       -2.13178231       0.31274459      -1.12821613
O       -0.82202231      -1.48642041       1.61918487
C        0.52830969      -1.26718341       1.54909487
C       -2.06831131       0.96195659      -0.16772613
O       -0.80992631       1.28004959       0.45465087
H       -1.04055731      -1.87291441       2.48767587
H        2.86559369      -1.80752241      -0.04626013
H        0.42633969       2.15239459      -1.87210013
H        3.07811869      -1.07720941      -2.29945613
H        2.00427569       0.62004259      -3.27636313
H       -3.86760131       1.56059059       0.68225587
H       -2.59548731       2.66642359       1.19524887
H       -3.34226831       2.64605859      -0.50916513
