21
Properties=species:S:1:pos:R:3 -405689.65844604804=T pbc="F F F"
C        2.09020202      -1.04322351      -0.29258969
C        0.68863302       1.13926349      -1.65197269
C        2.46407702      -0.64772551      -1.51597969
C        1.71246702       0.37467949      -2.25034869
C       -2.99353098       1.58446949       0.60239831
C        0.97312602      -0.39996251       0.36159531
C        0.33395502       0.71656349      -0.32562169
O        0.86255002      -2.19350151       1.88607731
O       -2.01280198       0.17152049      -1.12680869
O       -0.76516598      -0.62679551       2.00384731
C        0.40223002      -1.18019051       1.47534831
C       -1.90805898       0.95543749      -0.23164669
O       -0.72372298       1.34233449       0.27351431
H       -0.97723898      -1.40338651       2.55446531
H        2.52421102      -1.94384951       0.21045431
H        0.37078502       1.92243049      -2.28365169
H        3.21386202      -1.04749851      -2.12428369
H        1.89476702       0.36189149      -3.32372369
H       -2.67854898       2.48433149       0.96459131
H       -3.91507998       1.62732949      -0.02532969
H       -3.35426398       0.88089049       1.42302231
