21
Properties=species:S:1:pos:R:3 -405675.6952271525=T pbc="F F F"
C        1.86382133      -1.12577972      -0.38096056
C        0.78670533       1.15852628      -1.55557756
C        2.52579033      -0.59014772      -1.47482056
C        2.00428033       0.65449128      -2.11931456
C       -3.19103767       1.62860528       0.23568344
C        0.83481133      -0.49374472       0.30367144
C        0.24787233       0.58806228      -0.44119156
O        0.75410933      -2.29648272       1.71308844
O       -2.14145467      -0.10733472      -0.97049856
O       -0.18663767      -0.44889572       2.49885744
C        0.54167233      -1.09941672       1.58603144
C       -2.08744267       0.87143128      -0.33265956
O       -0.89399167       1.40814628       0.08189744
H       -0.50722067      -1.12189372       3.20429444
H        2.06077833      -2.14223672       0.11170444
H        0.44023433       1.97052228      -2.07029056
H        3.15441333      -1.17483772      -2.07166056
H        2.34990633       0.98932028      -3.07542256
H       -3.22308567       1.63153228       1.35058444
H       -3.06023267       2.64543128      -0.14900456
H       -4.03535367       1.17248828      -0.28381656
