21
Properties=species:S:1:pos:R:3 -405676.8016733069=T pbc="F F F"
C        2.15218850      -0.89820852      -0.21011973
C        1.08340250       1.16714448      -1.50879773
C        2.85603650      -0.41107952      -1.33917173
C        2.28866050       0.60039148      -2.02218973
C       -3.10995450       1.47690748       0.30509527
C        0.95417550      -0.29757252       0.25973027
C        0.40754750       0.72896148      -0.41697673
O       -0.48471250      -0.17546252       2.19124527
O       -2.19058950      -0.70094552      -0.48293173
O        0.07021450      -2.13654252       1.54761927
C        0.18135850      -0.83404352       1.43309127
C       -2.02213450       0.51613348      -0.23605073
O       -0.89776850       1.27476048      -0.28019373
H       -0.35590050      -2.19517552       2.44683227
H        2.14572450      -1.94301152       0.10429127
H        0.63096750       2.02465048      -1.96583973
H        3.71356750      -0.88014552      -1.79369073
H        2.83536050       1.07987348      -2.88077973
H       -4.02618050       1.40384248      -0.26583873
H       -3.59903050       1.12456148       1.17928427
H       -2.80059750       2.57900548       0.42524527
