21
Properties=species:S:1:pos:R:3 -405688.30234661157=T pbc="F F F"
C        2.02310305      -1.17092450      -0.39304070
C        0.78894805       1.15550750      -1.55989070
C        2.44318805      -0.67251750      -1.64184870
C        1.84783405       0.45728850      -2.18577870
C       -3.18002895       1.61931750       0.41440130
C        0.97934705      -0.50405450       0.32851230
C        0.37255905       0.74064550      -0.29256470
O        0.82697905      -2.23232050       1.93007730
O       -2.26135895       0.10995950      -1.17344870
O       -0.36280195      -0.42321950       2.28886830
C        0.51504005      -1.10374450       1.51528230
C       -2.09994195       0.90191150      -0.31164170
O       -0.78667395       1.23680250       0.21250930
H       -0.23563495      -0.90995650       3.15146330
H        2.25887705      -2.20090050       0.06705730
H        0.24742605       1.96015350      -2.01651770
H        3.11792105      -1.31662750      -2.20594070
H        2.00588505       0.93154050      -3.17298770
H       -3.67909095       0.95402250       1.05842630
H       -2.71093895       2.41949650       0.89716330
H       -3.93355295       1.98499750      -0.35123370
