21
Properties=species:S:1:pos:R:3 -405687.4308860773=T pbc="F F F"
C        1.79448242      -1.52852970      -0.55474213
C        1.13101942       1.12587330      -1.24575713
C        2.59314142      -0.81320970      -1.41918513
C        2.31649042       0.48600030      -1.72553713
C       -2.55991658       1.78938330       1.54210887
C        0.60990742      -0.96407570      -0.13238613
C        0.16045642       0.27887330      -0.61479013
O       -0.30965458      -1.48547070       1.92926687
O       -0.58857358       2.77934830       0.24818287
O       -1.16215458      -2.54021370       0.18906787
C       -0.29525858      -1.65470670       0.77356487
C       -1.33460358       1.86699330       0.52152687
O       -1.20870158       0.68987630      -0.27204213
H       -1.67793258      -2.85403670       0.94553087
H        2.08377042      -2.49593370      -0.06836313
H        0.81178942       2.11391930      -1.53221413
H        3.54625842      -1.20138570      -1.76488413
H        2.97689742       1.14452530      -2.35009613
H       -3.14178358       2.77340630       1.65180887
H       -3.14293958       0.91423530       1.35158987
H       -2.15052658       1.45212530       2.52212587
