21
Properties=species:S:1:pos:R:3 -405684.10682517174=T pbc="F F F"
C        2.03924673      -1.25432524      -0.14495512
C        1.42522873       1.42194976      -0.80995312
C        2.86975173      -0.44101024      -0.85336312
C        2.58149973       0.88975176      -1.27904312
C       -2.91130527       1.71599376       0.65363288
C        0.78856073      -0.71338724       0.18083388
C        0.50972273       0.63239376      -0.04962312
O       -1.43767027      -1.08069124       0.80815888
O       -1.91570527       0.85330376      -1.35857112
O        0.05493673      -2.78213724       1.33482088
C       -0.37230727      -1.57371424       0.70790688
C       -1.81260927       1.25804276      -0.24711912
O       -0.58360027       1.34082776       0.53183188
H       -0.74180227      -3.06273224       1.75643788
H        2.22681573      -2.16977724       0.33963488
H        1.42350973       2.48789976      -0.85063312
H        3.87311573      -0.62166724      -1.24399312
H        3.23450973       1.46580476      -1.86505612
H       -3.89190527       1.72149876       0.20635388
H       -2.93337427       1.02674776       1.50744788
H       -2.51672327       2.58766976       1.18871988
