21
Properties=species:S:1:pos:R:3 -405687.1386315355=T pbc="F F F"
C        1.99847651      -1.14370299      -0.41641042
C        1.04665351       1.26551001      -1.36976542
C        2.33882051      -0.69231399      -1.65296742
C        1.96806651       0.57401401      -2.05840542
C       -3.24533849       1.26378801       0.46508258
C        0.90684851      -0.53394899       0.23513358
C        0.37717251       0.72755601      -0.32660942
O        0.82974851      -2.24942799       1.97206658
O       -2.13025749       0.21436101      -1.30466742
O       -0.59939149      -0.43499799       2.17622258
C        0.37634851      -1.15772499       1.55207858
C       -2.03085849       0.87489801      -0.33439142
O       -0.74545949       1.37716901       0.21362758
H       -0.60644549      -0.94566699       3.01155258
H        2.49773651      -1.95503099       0.05759358
H        0.71283051       2.29391301      -1.72676042
H        2.90381751      -1.39995899      -2.32614142
H        2.36073951       1.12270401      -2.91339642
H       -3.01787949       2.26997501       0.83206458
H       -4.07989149       1.27576401      -0.27724342
H       -3.27329549       0.65621401       1.33267258
