21
Properties=species:S:1:pos:R:3 -405686.5021735214=T pbc="F F F"
C        1.70000464      -1.36399681      -0.59776280
C        0.68792364       0.89237019      -1.65038680
C        2.55028064      -0.59252481      -1.41064680
C        2.02333964       0.51912719      -2.03632180
C       -2.57793636       2.45546219       0.84734920
C        0.50493764      -0.93391281      -0.10715980
C        0.03296864       0.21776119      -0.63658380
O       -0.22415736      -1.34955381       2.12086120
O       -0.22300936       2.21713219       0.95061420
O       -0.76964436      -2.79730181       0.44514620
C       -0.19425736      -1.65071081       0.97262420
C       -1.27749436       1.72935719       0.57002020
O       -1.30465936       0.71306319      -0.31978680
H       -1.03856536      -3.35008081       1.20934120
H        2.28555964      -2.13713881      -0.19824880
H        0.19037364       1.87402419      -1.96913480
H        3.46038464      -1.09253281      -1.55099280
H        2.45774964       1.13391219      -2.86621980
H       -2.54622336       2.58142719       1.96456120
H       -2.47496636       3.34286119       0.30109020
H       -3.39252936       1.80021619       0.58269520
