21
Properties=species:S:1:pos:R:3 -405678.2793008557=T pbc="F F F"
C        2.24460623      -1.06224062      -0.34227552
C        0.71853523       1.00518338      -1.64020752
C        2.59949823      -0.48427362      -1.55091052
C        1.85232323       0.48330038      -2.18657552
C       -3.01124377       1.93537838       0.54794448
C        0.99738623      -0.64286562       0.21663448
C        0.30665623       0.47477838      -0.37315352
O        1.27013323      -2.06923162       2.17685248
O       -2.68845577       0.21703138      -1.01929152
O       -0.63895977      -0.85128762       1.93378248
C        0.58433523      -1.26503362       1.50886448
C       -2.20193877       1.15236438      -0.33627552
O       -0.90578877       1.18234838       0.16037348
H       -0.96532677      -1.52163762       2.60072648
H        2.99875923      -1.71535262       0.19273548
H        0.22367623       1.85758538      -2.06344552
H        3.49418923      -0.86086162      -2.15787852
H        2.28395423       0.89224838      -3.03552352
H       -3.99528177       2.18540938       0.08227948
H       -3.21075377       1.42792738       1.40973948
H       -2.50393977       2.86592738       0.84849948
