21
Properties=species:S:1:pos:R:3 -405677.8237009228=T pbc="F F F"
C        1.58404026      -1.51990905      -0.81511841
C        0.84243526       0.98076695      -1.86551641
C        2.37710926      -0.89571105      -1.74059341
C        1.86265326       0.27393095      -2.47861841
C       -2.28714674       2.50031095       0.92505259
C        0.48286126      -0.79567305      -0.35404841
C        0.09258426       0.42694495      -0.80154841
O       -1.45570074      -1.33994105       0.83669259
O       -0.82716274       1.13226995       2.03259759
O        0.60884426      -2.09300605       1.70723259
C       -0.25277674      -1.43815305       0.75358759
C       -1.21178874       1.53087695       0.97388259
O       -0.94417174       1.19227695      -0.33550641
H        0.13521326      -1.95019605       2.58247059
H        1.64411026      -2.51335505      -0.42179741
H        0.56322326       1.98425495      -2.25225741
H        3.04517826      -1.54188905      -2.23459941
H        2.23437726       0.67287195      -3.46490641
H       -2.34160674       3.04682295       0.04322859
H       -3.24153474       2.03424395       1.02682259
H       -2.04086174       3.19682395       1.74468259
