21
Properties=species:S:1:pos:R:3 -405697.996169294=T pbc="F F F"
C        2.13975338      -0.98207385      -0.20473945
C        0.73233638       1.02269715      -1.41016445
C        2.61235038      -0.45079885      -1.35753145
C        1.91696238       0.59869115      -1.96998845
C       -3.32215162       1.31031715       0.21168855
C        0.88107738      -0.62421385       0.39751755
C        0.22025238       0.42709215      -0.18991245
O       -0.75466962      -0.98596785       2.08921655
O       -2.05201862       1.08107415      -1.79252945
O        1.25512838      -2.00956285       2.26350755
C        0.34451938      -1.20062085       1.62546855
C       -2.05421662       1.11321315      -0.61397645
O       -0.98353062       0.83489415       0.19654055
H        0.83089238      -2.26668285       3.13650955
H        2.70908238      -1.78212585       0.29675955
H        0.28779438       1.97981615      -1.79509545
H        3.66074338      -0.54430585      -1.66726545
H        2.35457538       1.12824315      -2.83041145
H       -4.20846462       1.13979215      -0.48675145
H       -3.38415762       0.61189315       1.00786855
H       -3.34395462       2.40830715       0.39947155
