21
Properties=species:S:1:pos:R:3 -405677.7977536224=T pbc="F F F"
C        2.10892227      -1.14721493      -0.31212328
C        0.76823727       0.83217107      -1.62660228
C        2.69300527      -0.56073393      -1.46020428
C        1.93480727       0.32409907      -2.23480928
C       -2.85550773       1.79290307       0.82003972
C        0.88392827      -0.68047893       0.25513872
C        0.24768127       0.44493907      -0.39918528
O        1.09010127      -2.21369493       2.12051672
O       -2.46215873       1.33270407      -1.47055928
O       -0.81911873      -0.95979693       1.93032172
C        0.46507127      -1.36133393       1.53119372
C       -2.05664173       1.33097907      -0.28452428
O       -0.84650873       0.85382307       0.27398572
H       -1.01366973      -1.13810793       2.90509572
H        2.67253627      -1.77985593       0.34333072
H        0.14344127       1.34154607      -2.29000228
H        3.55040827      -1.08118993      -2.01920728
H        2.19652927       0.62068807      -3.22379428
H       -3.94675973       1.88457507       0.56296372
H       -2.48691173       1.32448807       1.69361672
H       -2.78900873       2.87862007       0.91589472
