21
Properties=species:S:1:pos:R:3 -405680.0632710208=T pbc="F F F"
C        1.95652142      -1.22575840      -0.27467687
C        1.48187342       1.45285360      -0.58370287
C        2.98295742      -0.47484240      -0.81464987
C        2.71826842       0.95879760      -0.92401587
C       -2.79529958       2.17280660       0.46368813
C        0.82111542      -0.75832540       0.43398913
C        0.63044142       0.63671960       0.22531813
O       -1.52456758      -1.23890840       1.23218813
O       -1.69940958       0.74375560      -1.26874687
O       -0.34134358      -2.94123440       0.31319113
C       -0.50801458      -1.63880040       0.71847313
C       -1.70727558       1.29753460      -0.23171187
O       -0.61809658       1.33097960       0.56609513
H       -1.16460758      -3.43264840       0.54096813
H        2.14462842      -2.32616340      -0.38811687
H        1.19435842       2.40386560      -0.80869787
H        3.82998542      -0.97194640      -1.34536587
H        3.30504442       1.78114460      -1.24406487
H       -3.57193958       1.57124060       0.91996913
H       -2.44362758       2.97825760       1.10015013
H       -3.34707558       2.58433860      -0.39405987
