21
Properties=species:S:1:pos:R:3 -405687.0812881494=T pbc="F F F"
C        2.29564264      -1.00016289      -0.03519754
C        0.78064764       0.83184711      -1.73072254
C        2.84207164      -0.52766589      -1.29675554
C        2.05403164       0.40249611      -2.09008154
C       -2.98271936       1.59562811       0.69715046
C        0.96751764      -0.54018189       0.32231046
C        0.24854764       0.40601611      -0.48865654
O       -0.89787436      -1.36511289       1.70377546
O       -2.49592736       0.96892411      -1.67556454
O        1.07552664      -1.49642589       2.63989346
C        0.28599264      -1.20898089       1.50979046
C       -2.23781736       1.07418711      -0.50742454
O       -0.90832836       0.91233511       0.04960546
H        0.50429064      -1.96339889       3.30482146
H        2.74191864      -1.64861489       0.75574446
H        0.33399664       1.67392211      -2.37203354
H        3.86819364      -0.72264789      -1.62947254
H        2.36973064       0.71522411      -3.06684554
H       -2.85370936       2.66393211       0.59121946
H       -4.03529636       1.38676011       0.80570546
H       -2.37122136       1.15063811       1.57663446
