21
Properties=species:S:1:pos:R:3 -405687.6200627872=T pbc="F F F"
C        2.09578034      -1.02683661      -0.25245274
C        0.87829434       1.12046039      -1.46073174
C        2.77229434      -0.44435461      -1.32248674
C        2.08098234       0.58233139      -2.02073874
C       -3.12155166       1.24144339       0.58898926
C        0.84711434      -0.55406861       0.23356926
C        0.37257734       0.65036639      -0.30431574
O       -0.99155366      -1.29052061       1.45414826
O       -2.16703566       0.47425339      -1.42881474
O        1.00083734      -1.60885861       2.33636426
C        0.19188534      -1.10481561       1.38571826
C       -2.01371266       0.92742739      -0.30288874
O       -0.83511866       1.28232739       0.30976526
H        0.41076034      -2.08103261       2.96825626
H        2.44702034      -1.88582561       0.39630626
H        0.29088334       1.65758639      -2.17512174
H        3.71118534      -0.90565761      -1.71411474
H        2.33366634       0.76109339      -3.03157674
H       -3.79599766       0.43485139       0.39119226
H       -2.98016666       1.47816639       1.69988426
H       -3.77994766       2.10410639       0.20923026
