21
Properties=species:S:1:pos:R:3 -405696.9182173743=T pbc="F F F"
C        1.87528588      -1.23592538      -0.20741169
C        1.52845188       1.39911162      -0.61354469
C        2.73801788      -0.53312038      -1.15903969
C        2.61477288       0.80407062      -1.25802769
C       -2.92707512       1.86650362       0.53773531
C        0.67291888      -0.68352338       0.27022231
C        0.49260088       0.69561962      -0.05596169
O       -1.42202812      -1.23740238       1.22062831
O       -1.83433512       0.91440362      -1.49986169
O        0.19058888      -2.78021738       1.32964631
C       -0.26816212      -1.53855038       0.96888631
C       -1.80186612       1.28210962      -0.37413169
O       -0.61921812       1.34919562       0.39987231
H       -0.69333212      -3.10682638       1.46801431
H        1.96982188      -2.35916338      -0.16612969
H        1.40768888       2.46567062      -0.66693669
H        3.46039688      -1.09245638      -1.71419069
H        3.37742888       1.53269862      -1.58480369
H       -3.86934112       1.60032662       0.01041531
H       -2.92988912       1.34952262       1.52926231
H       -2.87974512       2.96384762       0.62635531
