21
Properties=species:S:1:pos:R:3 -405693.39858991024=T pbc="F F F"
C        1.90660693      -1.28653521      -0.23101680
C        1.14555693       1.33497479      -0.61777880
C        2.70194593      -0.44870721      -1.01323180
C        2.36286793       0.90693279      -1.06927580
C       -2.97639407       1.94365279       0.16171820
C        0.69057193      -0.83390021       0.30054320
C        0.31642693       0.48367579       0.03949420
O       -1.13741707      -1.53985721       1.75648020
O       -1.35932407       2.03823379      -1.51559480
O        0.12762793      -3.15564121       0.72014120
C       -0.17619607      -1.78375821       1.05690820
C       -1.64023207       1.63332079      -0.44152480
O       -0.84215307       1.00592679       0.48327020
H       -0.53065607      -3.65511921       1.18421220
H        2.16485293      -2.32232221       0.03940820
H        0.84664193       2.35263979      -0.67007380
H        3.48184593      -1.00369821      -1.51935880
H        3.10967493       1.51847079      -1.43371580
H       -2.74057407       2.73737479       0.81994820
H       -3.62720307       2.22894779      -0.61934680
H       -3.30976907       1.13741479       0.87783120
