21
Properties=species:S:1:pos:R:3 -405693.64605743525=T pbc="F F F"
C        1.48587096      -1.55561680      -0.75539621
C        0.74018896       1.06411720      -1.86645821
C        2.34597396      -0.87616180      -1.60244021
C        1.99014796       0.38792820      -2.17964521
C       -2.41974604       2.40596520       0.94966679
C        0.31946796      -0.88740380      -0.32528321
C       -0.02719304       0.41977520      -0.84682921
O       -1.46305904      -1.40156580       1.34256179
O       -0.20903704       1.67755120       1.53120879
O        0.62715296      -2.38734980       1.41326579
C       -0.35994504      -1.56894480       0.84891179
C       -1.13744604       1.75002120       0.82479979
O       -1.14927404       1.03257220      -0.39566921
H        0.13093896      -2.88812880       2.11757079
H        1.84675196      -2.54802480      -0.50681321
H        0.35934196       1.97236620      -2.31717421
H        3.25762596      -1.44924880      -2.01809521
H        2.63100096       0.73562220      -2.99051721
H       -3.07779204       2.00594020       1.77831979
H       -2.25778804       3.43851820       1.07361779
H       -3.04042204       2.28419820       0.07491079
