21
Properties=species:S:1:pos:R:3 -405687.48873561854=T pbc="F F F"
C        2.10533375      -0.87033782      -0.03542257
C        1.01849575       1.12956318      -1.67118157
C        2.72676875      -0.48219382      -1.20696857
C        2.16864075       0.42243018      -2.10859757
C       -3.15193125       1.44119018       0.37215843
C        0.89838775      -0.26772282       0.29100243
C        0.38699475       0.72426218      -0.42161357
O       -0.40594625      -0.14771182       2.27268443
O       -2.13167225      -0.48320382      -0.80670157
O        0.26892775      -2.25280982       1.43436543
C        0.16352475      -0.84649782       1.44532243
C       -2.03093925       0.57708318      -0.21296057
O       -0.86122625       1.35487918      -0.09795057
H       -0.16670925      -2.36257682       2.34063243
H        2.28829475      -1.80726982       0.61407343
H        0.51010875       1.96931218      -2.13136457
H        3.79052875      -0.70821182      -1.33831457
H        2.67805175       0.60887818      -3.04178957
H       -2.76840925       2.24601918       0.93059843
H       -3.77030525       1.76065318      -0.50852257
H       -3.91155025       0.79407218       0.90713943
