21
Properties=species:S:1:pos:R:3 -405689.89858769573=T pbc="F F F"
C        1.41384791      -1.61618891      -1.10667989
C        0.93996791       1.05803109      -1.25097689
C        2.29602891      -0.87255091      -1.83204889
C        2.15788491       0.52745009      -1.79651589
C       -2.53390209       2.20651209       1.13324811
C        0.39943091      -1.13846591      -0.27552289
C        0.13262991       0.30761309      -0.44761289
O       -1.20364809      -1.35766991       1.61667111
O       -0.38930209       2.92954609       0.50416811
O        0.22036291      -3.09614091       0.95895511
C       -0.33308709      -1.78911591       0.86234211
C       -1.21691209       2.06682609       0.54665411
O       -1.05637209       0.79539509       0.10891011
H       -0.26120309      -3.45484091       1.72704511
H        1.74734791      -2.66844491      -0.90523989
H        0.83055291       2.17149809      -1.26777789
H        3.04819091      -1.33514491      -2.39183589
H        2.96084791       1.17849009      -2.36363389
H       -2.37562209       2.17439709       2.25255311
H       -2.97905409       3.17363909       0.98527111
H       -3.18902709       1.39665509       0.97366611
