21
Properties=species:S:1:pos:R:3 -405677.98605557735=T pbc="F F F"
C        2.12075179      -0.97571851      -0.23939923
C        0.87830479       1.07660049      -1.81543323
C        2.70504579      -0.45211751      -1.43186223
C        2.08599479       0.56083249      -2.19483723
C       -3.01117721       1.69742949       0.67934577
C        0.94378379      -0.34839351       0.15016277
C        0.29185479       0.59460849      -0.66086323
O        0.14998079      -2.24488051       1.18152377
O       -2.31893021      -0.43620451      -0.12902823
O       -0.09544221      -0.32182851       2.45237677
C        0.22034779      -1.03671951       1.31396977
C       -2.06919021       0.78891049      -0.00027223
O       -0.78818821       1.29077749      -0.28850723
H       -0.42603121      -1.10456651       2.99103077
H        2.33571479      -1.83442351       0.21359177
H        0.34063679       1.80778649      -2.39881723
H        3.72470279      -0.83679751      -1.58116223
H        2.60409879       0.66691749      -3.18277823
H       -3.22093821       1.26333249       1.68491777
H       -2.53867221       2.67786749       0.93685677
H       -3.97332321       1.84506849       0.28933777
