21
Properties=species:S:1:pos:R:3 -405691.9000836651=T pbc="F F F"
C        2.02893886      -0.97219258      -0.14647568
C        0.82398586       0.96719442      -1.67892268
C        2.54567286      -0.65341558      -1.37128268
C        1.90114586       0.28604442      -2.25258868
C       -3.32988314       1.57466342       0.20185932
C        0.85412086      -0.45014658       0.37569832
C        0.22250786       0.52654742      -0.43095568
O       -0.72498014      -0.97873458       2.04042332
O       -2.19234514       0.11943242      -1.40572268
O        1.45000486      -1.43065058       2.57101432
C        0.39247286      -0.97140258       1.68063332
C       -2.16101214       0.81724342      -0.45005668
O       -0.90784414       1.27811742      -0.00045968
H        1.04604486      -1.83558058       3.34527532
H        2.60356086      -1.61647958       0.51140632
H        0.24830186       1.79718842      -2.11635868
H        3.34679886      -1.18187858      -1.82203268
H        2.28651086       0.29006042      -3.27199068
H       -4.14430014       0.79662742       0.13145932
H       -3.07513714       2.02645442       1.21610132
H       -3.64618014       2.39251342      -0.37789668
