21
Properties=species:S:1:pos:R:3 -405693.0850572904=T pbc="F F F"
C        1.77146767      -1.37868660      -0.50386751
C        1.57551667       1.35128140      -0.76212951
C        2.64771967      -0.76857060      -1.33108751
C        2.59481467       0.64734040      -1.40790851
C       -2.68465233       2.01178840       1.08095449
C        0.65811267      -0.73908760       0.05142849
C        0.59769067       0.64482340      -0.04518451
O       -0.37600933      -2.95487460       0.38542349
O       -1.95808833       1.46962740      -1.15303051
O       -1.02968133      -1.24188860       1.72444549
C       -0.30545433      -1.78410460       0.72839149
C       -1.71989933       1.52871340       0.00980349
O       -0.45821633       1.30381740       0.63758649
H       -1.80063833      -1.73927960       2.14284049
H        1.81658067      -2.41814760      -0.30242551
H        1.34585867       2.39172140      -1.04401051
H        3.46375667      -1.27217260      -1.77317651
H        3.40259567       1.18336040      -1.99689451
H       -2.45862233       1.68084840       2.04564649
H       -2.59989833       3.09649640       0.95890749
H       -3.65712233       1.64531240       0.61655049
