21
Properties=species:S:1:pos:R:3 -405680.0679009053=T pbc="F F F"
C        1.68454708      -1.49864340      -0.71810919
C        0.72761608       0.96839760      -1.61275019
C        2.38680508      -0.67945040      -1.66479019
C        1.92086408       0.51842560      -2.11104719
C       -2.71724092       2.37714260       0.59858181
C        0.53381108      -1.00312240      -0.13789319
C        0.14951808       0.24663560      -0.58044619
O       -0.78904692      -1.12993940       1.94898181
O       -0.18709792       2.27173760       1.22125781
O       -0.35143192      -2.86976440       0.56498281
C       -0.19965592      -1.63583840       0.98570581
C       -1.16665892       1.80935360       0.68893081
O       -1.05172692       0.66101560      -0.09412119
H       -0.71583892      -3.20546040       1.41409781
H        2.11225108      -2.42354840      -0.33784319
H        0.25030308       1.97383660      -1.71704519
H        3.38699608      -1.00125140      -2.07791819
H        2.48856108       1.10055860      -2.83039019
H       -3.14056792       2.80690860       1.59581581
H       -2.90382792       3.09759860      -0.15711519
H       -3.24257792       1.45259260       0.52119281
