21
Properties=species:S:1:pos:R:3 -405685.4393280954=T pbc="F F F"
C        1.85260629      -1.28264746      -0.53663514
C        1.60160229       1.41079654      -0.45928614
C        2.92941929      -0.51690046      -0.99528814
C        2.81918929       0.90494354      -0.86775114
C       -3.07365271       1.75423554       0.79104586
C        0.63434129      -0.84954446       0.01132786
C        0.62234829       0.59476054       0.08057986
O       -1.59756671      -1.33892246       0.49108086
O       -1.75298271       1.50857254      -1.28782814
O       -0.05296071      -2.89922446       1.25234886
C       -0.43574671      -1.73342946       0.61479486
C       -1.76770971       1.41794354      -0.09083814
O       -0.48144171       1.26338954       0.58011486
H       -0.95376271      -3.20167946       1.43520586
H        1.92962729      -2.36411646      -0.65304014
H        1.44122929       2.45671354      -0.29772214
H        3.84733629      -0.95378046      -1.28891314
H        3.60575929       1.63554754      -1.24913214
H       -3.24652271       2.77265354       0.67310986
H       -3.90386571       1.21633654       0.44918486
H       -2.76871571       1.46425454       1.78304886
