21
Properties=species:S:1:pos:R:3 -405685.41625265614=T pbc="F F F"
C        1.93497864      -1.31855639      -0.27010773
C        1.44175064       1.41509261      -0.78535573
C        2.90432264      -0.60064039      -1.00453873
C        2.68411464       0.74273761      -1.23039673
C       -2.89977636       1.62003061       0.82427227
C        0.75981864      -0.82047739       0.18013327
C        0.56536764       0.65878461      -0.02594273
O       -1.51580736      -1.55678839       0.59775027
O       -1.99496636       1.58851161      -1.49883173
O        0.20622064      -2.46108139       1.77992327
C       -0.32793936      -1.63151539       0.85125327
C       -1.89436736       1.37396661      -0.32067773
O       -0.64245336       1.19831861       0.38929227
H       -0.45373236      -3.14950139       2.11514727
H        2.35535864      -2.36659939      -0.10716773
H        1.16281164       2.43809861      -1.18026073
H        3.94083964      -0.98597639      -1.08725573
H        3.39533264       1.40894961      -1.65240973
H       -3.38816336       2.54151761       0.42410027
H       -3.62081936       0.77088761       0.82290527
H       -2.28747336       1.74115861       1.74908727
