21
Properties=species:S:1:pos:R:3 -405692.09793016675=T pbc="F F F"
C        2.17036518      -0.90857763      -0.27808980
C        0.93192318       1.05519337      -1.71806880
C        2.91030718      -0.31809963      -1.31108180
C        2.24889218       0.69450037      -2.08451480
C       -3.01324382       1.74182637       0.59462320
C        0.82041018      -0.55614863       0.05132720
C        0.31659218       0.54374537      -0.65190780
O        0.36156318      -2.35165263       1.52597220
O       -2.49014182      -0.37917463      -0.23231180
O       -0.47745682      -0.31714663       2.03989220
C        0.23954818      -1.15481963       1.27049720
C       -2.06361882       0.73946737      -0.01243180
O       -0.79194282       1.30034237      -0.16310880
H       -0.34926382      -0.95113763       2.83877320
H        2.69097418      -1.65924963       0.37348520
H        0.46555718       1.92855837      -2.26047980
H        3.98780218      -0.58235563      -1.43890780
H        2.69432118       1.20358237      -2.90804680
H       -2.94389182       1.64523037       1.66042520
H       -2.85581982       2.87536937       0.34165320
H       -4.07043482       1.40229937       0.36592320
