21
Properties=species:S:1:pos:R:3 -405695.449479932=T pbc="F F F"
C        1.87240824      -1.33933658      -0.34648499
C        1.21321324       1.30152442      -0.85797299
C        2.86798524      -0.49889858      -0.94420699
C        2.49467224       0.84694142      -1.26477699
C       -2.96354876       2.04566842       0.44645601
C        0.72485024      -0.81165858       0.23073401
C        0.32451024       0.46451242      -0.09694399
O       -1.44088576      -1.70903858       1.12243801
O       -1.63351876       1.84697142      -1.58314299
O        0.58181824      -2.68313758       1.65251201
C       -0.24588676      -1.70486058       1.09732101
C       -1.77104576       1.62524542      -0.35965299
O       -0.89791176       0.87952142       0.41400101
H        0.01205824      -3.38512758       2.10179501
H        2.15990624      -2.39623058      -0.11630599
H        1.00977524       2.27173342      -1.26764299
H        3.76758824      -1.06979458      -1.25089599
H        3.15677324       1.49618242      -1.80830399
H       -3.81491176       2.02170142      -0.21385599
H       -3.25305976       1.41232342       1.27017601
H       -3.01349376       3.11490142       0.75078701
