21
Properties=species:S:1:pos:R:3 -405679.4200849938=T pbc="F F F"
C        1.87257950      -1.26864360      -0.30841074
C        1.56570350       1.40186840      -0.59993074
C        2.98981050      -0.52040160      -0.59475074
C        2.78932650       0.83599140      -0.90929974
C       -2.80145550       2.06379840       0.88038826
C        0.69040350      -0.80156660       0.06679826
C        0.56141650       0.64120540      -0.03579474
O       -1.58848950      -1.71646760       0.56051426
O       -2.08208250       1.41010640      -1.32059974
O        0.12332650      -2.95137460       1.04970026
C       -0.40378150      -1.77175860       0.53944526
C       -1.82508250       1.65026940      -0.18996374
O       -0.60337150       1.33534040       0.46431826
H       -0.71440650      -3.51585260       1.19935526
H        1.97854050      -2.36722860      -0.16067474
H        1.45706250       2.47122440      -0.70423574
H        3.91678450      -1.04827260      -0.76039274
H        3.65164250       1.42527840      -1.25490974
H       -3.82306850       1.77549440       0.86055626
H       -2.58095150       2.01720540       1.98823126
H       -2.77259350       3.19065340       0.57754026
