21
Properties=species:S:1:pos:R:3 -405686.99216549756=T pbc="F F F"
C        2.18587061      -0.97227838       0.06867098
C        0.79103361       0.83239762      -1.73116102
C        2.80912761      -0.63713838      -1.21522902
C        2.10435261       0.26126662      -2.00609602
C       -3.09637639       1.56034562       0.61259698
C        0.93313061      -0.45025338       0.38115898
C        0.17694461       0.32003362      -0.56181402
O       -0.83517539      -1.65342138       1.56361698
O       -2.53483439       1.12378362      -1.59500102
O        1.24144361      -1.30886338       2.49358598
C        0.31657461      -1.16493038       1.54168898
C       -2.15925439       1.21924962      -0.45575202
O       -0.90982839       0.91883762       0.06974498
H        0.63986261      -1.59775138       3.23102198
H        2.69688961      -1.57953338       0.80848798
H        0.27547061       1.58538962      -2.26462302
H        3.81740361      -0.98104138      -1.49226302
H        2.39126561       0.46938562      -3.07907802
H       -3.08676439       2.68541162       0.81625298
H       -4.14472639       1.26552862       0.28811898
H       -2.72631039       1.21428062       1.58587198
