21
Properties=species:S:1:pos:R:3 -405683.6076787515=T pbc="F F F"
C        2.13614806      -1.11966094      -0.40897157
C        0.90936806       1.19686106      -1.49538857
C        2.66865706      -0.45414394      -1.45758957
C        2.04946606       0.65703306      -2.02731057
C       -2.80697094       1.93523706       0.81407143
C        0.90780506      -0.69481694       0.14637443
C        0.34905606       0.48004106      -0.33186357
O        0.57982606      -1.27070294       2.41320243
O       -2.26947994       0.46207206      -0.97257257
O       -0.99934894      -2.11513394       0.93438943
C        0.11003606      -1.35149894       1.30398143
C       -1.91098694       1.16176706      -0.05436857
O       -0.53486394       1.30147706       0.36954743
H       -1.39785294      -2.40664094       1.77439843
H        2.62733806      -2.08078394      -0.02387857
H        0.32818606       2.00997006      -1.98835857
H        3.66378806      -0.92054994      -1.71485257
H        2.38082106       1.16938406      -2.87398657
H       -2.79961194       1.55506606       1.76846543
H       -2.35519694       2.90541006       1.00705143
H       -3.82218294       1.95392306       0.29854643
