21
Properties=species:S:1:pos:R:3 -405681.35836991004=T pbc="F F F"
C        1.76012694      -1.51824718      -0.61283683
C        0.98948294       1.07964682      -1.31456483
C        2.57671394      -0.62586218      -1.38777583
C        2.17510394       0.62772482      -1.80409583
C       -2.68564306       1.94142582       0.91787617
C        0.46580294      -1.06225618      -0.18692783
C        0.16609394       0.21782282      -0.56621783
O       -0.02795906      -1.58783318       1.92815217
O       -0.45371306       2.81591182       0.58217117
O       -1.34976006      -2.66460018       0.37706017
C       -0.30054506      -1.78093018       0.72450817
C       -1.24617506       1.89613382       0.47351617
O       -1.02126406       0.66119082       0.01270017
H       -1.50931106      -3.00683918       1.32425717
H        2.21684294      -2.48276518      -0.27020483
H        0.57639394       2.06685782      -1.48177683
H        3.64039894      -0.82176118      -1.49516283
H        2.89668194       1.23127282      -2.37887283
H       -2.74991706       2.90606582       1.50100417
H       -3.40890406       2.17710382       0.01203317
H       -2.83590506       1.00187682       1.49051217
