21
Properties=species:S:1:pos:R:3 -405690.3372663206=T pbc="F F F"
C        1.82638015      -1.20372930      -0.66021305
C        0.99574215       1.21574670      -1.54561305
C        2.48216215      -0.67178330      -1.80439505
C        2.13399215       0.66037770      -2.15399505
C       -3.07334385       1.57224070       0.61166895
C        0.75913915      -0.53781030       0.08719695
C        0.33241315       0.65785570      -0.45077405
O        0.70096815      -2.13478030       1.96995595
O       -2.25934685      -0.31828530      -0.59346205
O       -0.49008085      -0.25157230       2.08624695
C        0.33904115      -1.14618130       1.38123895
C       -1.98132685       0.81732370      -0.10438205
O       -0.69455585       1.41799270       0.15368395
H       -0.59383585      -0.61979130       2.93874895
H        2.03620415      -2.29449930      -0.33233905
H        0.66944615       2.15397670      -1.93375505
H        3.18638015      -1.24580530      -2.34799505
H        2.73291915       1.17446670      -2.89879605
H       -2.55832185       1.87040570       1.53826295
H       -3.49461185       2.35875370       0.00590195
H       -3.85955285       0.78109170       0.87364895
