21
Properties=species:S:1:pos:R:3 -405678.93799099716=T pbc="F F F"
C        2.04665983      -1.17970410      -0.40086859
C        1.11349383       1.34802590      -1.40779059
C        2.67921983      -0.58542710      -1.53941759
C        2.23825383       0.61955890      -1.98402259
C       -2.86259917       2.17596590       0.63622941
C        0.90716083      -0.60381710       0.19101841
C        0.36036883       0.65471590      -0.38195959
O        0.66028883      -1.64820810       2.45759341
O       -2.47810317       0.09476290      -0.58792259
O       -0.86347017      -1.86104710       0.81715241
C        0.24331183      -1.34826710       1.33992441
C       -2.09346417       1.10029590      -0.06083259
O       -0.72567617       1.42737490       0.19432241
H       -1.38669317      -2.27811010       1.48330741
H        2.53081883      -2.08029110      -0.10619459
H        0.96477383       2.39370690      -1.45216759
H        3.31520583      -1.24034810      -2.08833859
H        2.66918683       1.22016990      -2.82067259
H       -3.24040017       1.94563690       1.57661141
H       -2.28297217       3.14796590       0.63903241
H       -3.65623917       2.45533890      -0.00095459
