21
Properties=species:S:1:pos:R:3 -405685.2063844619=T pbc="F F F"
C        2.20318739      -0.87695970      -0.18479119
C        0.64718439       0.88983430      -1.69044519
C        2.60795539      -0.46020070      -1.51816319
C        1.78944439       0.24533730      -2.31752719
C       -3.12439761       2.06783230       0.51263581
C        0.94247639      -0.53182870       0.26779181
C        0.30016139       0.56811830      -0.35590719
O        1.18424339      -2.10069870       2.15660681
O       -2.29205261       0.31278430      -0.99287919
O       -0.84793161      -1.15696170       1.72118181
C        0.46303439      -1.35921670       1.44858681
C       -2.03542661       1.13753630      -0.13060119
O       -0.70733261       1.39758730       0.27789181
H       -0.93010161      -1.67235270       2.52908181
H        2.77803239      -1.62367270       0.21304281
H        0.11661639       1.67913930      -2.29641819
H        3.48292939      -1.09510270      -1.94713819
H        1.97200839       0.61187630      -3.26964219
H       -4.08917261       1.70580030      -0.02380319
H       -3.24221561       1.84520630       1.58000781
H       -2.99316661       3.09683930       0.27022381
