21
Properties=species:S:1:pos:R:3 -405684.9807659005=T pbc="F F F"
C        2.08120894      -1.06236283      -0.10911773
C        0.77681194       0.97748317      -1.63426473
C        2.63061694      -0.54095183      -1.33564273
C        1.94152294       0.44215517      -2.12009373
C       -3.14080206       1.74008817       0.16115127
C        0.81260494      -0.55170183       0.31999727
C        0.23976694       0.51414417      -0.39720973
O       -0.74752306      -0.89798883       2.13243527
O       -2.37153806       0.11785417      -1.38698573
O        1.28894694      -1.67486083       2.31695027
C        0.36032094      -1.07511383       1.61369827
C       -2.13436106       0.84852717      -0.46547273
O       -0.80667306       1.24534617       0.05705127
H        0.81411394      -2.28146483       2.88608127
H        2.61319594      -1.80323183       0.52121927
H        0.22098494       1.79361317      -2.17182373
H        3.70277694      -0.63783383      -1.44999673
H        2.16064194       0.95918017      -2.97751673
H       -2.75218506       2.03063217       1.09223927
H       -3.27119506       2.62653717      -0.40977373
H       -4.12048606       1.12377217       0.23546727
