21
Properties=species:S:1:pos:R:3 -405690.05938441824=T pbc="F F F"
C        2.02716900      -1.19676973      -0.21569457
C        0.95011100       1.12829327      -1.37619757
C        2.72532600      -0.56344573      -1.22086557
C        2.20798500       0.66489027      -1.74537157
C       -3.01463700       1.54923727       0.58027343
C        0.73055700      -0.80905373       0.26337443
C        0.32420400       0.35572327      -0.35793057
O       -1.22645100      -1.81325673       1.18219643
O       -1.71495100       1.98849227      -1.48478157
O        0.71412400      -1.97758173       2.36510743
C       -0.02981800      -1.61378373       1.29580343
C       -1.82377800       1.54311027      -0.33113357
O       -0.83719100       0.88246027       0.27362143
H        0.08956000      -2.30917073       3.04828743
H        2.49773500      -2.15214773       0.04708543
H        0.61278700       2.12820227      -1.70625257
H        3.67560000      -1.10236273      -1.52180457
H        2.73797500       1.04737627      -2.56527857
H       -3.22451500       0.46578227       1.00608143
H       -2.55454700       1.97573327       1.47542643
H       -3.98294200       1.94602127       0.14351243
