21
Properties=species:S:1:pos:R:3 -405690.9057437351=T pbc="F F F"
C        2.06642854      -1.20081700      -0.10999406
C        0.96867154       1.09214700      -1.30275506
C        2.72241554      -0.67726500      -1.23782106
C        2.19543154       0.48338700      -1.79193806
C       -3.10043446       1.91518400       0.60168494
C        0.85209054      -0.78551200       0.28854294
C        0.28503454       0.40169000      -0.24480206
O       -1.00985446      -2.12326900       0.86384594
O       -1.82078046       1.92349700      -1.40115506
O        0.66692254      -1.80137100       2.32860594
C        0.03241254      -1.59733000       1.17351994
C       -1.89784046       1.58314000      -0.29308906
O       -0.90594946       0.84186400       0.39438294
H       -0.05540246      -2.26163600       2.91961494
H        2.64881754      -1.94601100       0.47200794
H        0.64699954       2.02943600      -1.75256006
H        3.74750354      -1.13999000      -1.46351206
H        2.80535654       0.93536900      -2.56917806
H       -2.75849846       1.87917900       1.61559394
H       -3.41092846       3.01678300       0.42504694
H       -4.01234646       1.42315000       0.39273194
