21
Properties=species:S:1:pos:R:3 -405675.5459542485=T pbc="F F F"
C        2.13033292      -1.11623142      -0.37451504
C        0.59471292       0.90456158      -1.52409804
C        2.55268292      -0.52843842      -1.64912404
C        1.75529492       0.34472658      -2.19047204
C       -2.89945808       2.05178958       0.42835896
C        0.97314792      -0.62829642       0.22860196
C        0.17483892       0.37558458      -0.35993804
O        1.34960992      -1.39195842       2.56465896
O       -2.36156008       0.44672058      -1.29636704
O       -0.82227508      -1.32655742       1.62372596
C        0.53713592      -1.15878742       1.57122396
C       -2.15101108       0.99026258      -0.23447204
O       -0.81866808       1.01344958       0.34706096
H       -0.92558608      -1.84321142       2.46937996
H        2.71480292      -1.81026242       0.00591496
H        0.08033092       1.88468958      -1.76727804
H        3.54683392      -0.87258242      -2.06347204
H        2.08095092       0.86387158      -3.10172404
H       -2.99055408       1.89531658       1.47191296
H       -2.15974108       2.89207858       0.38489796
H       -3.91410108       2.25398658       0.06463396
