21
Properties=species:S:1:pos:R:3 -405683.8331977039=T pbc="F F F"
C        2.13807611      -1.02247278      -0.30713878
C        0.80912211       0.97097622      -1.76238578
C        2.56014211      -0.63473578      -1.62747178
C        1.95023111       0.40039222      -2.30769878
C       -2.80232689       1.41581322       1.11215322
C        0.97338911      -0.40564378       0.23897322
C        0.22315311       0.53337622      -0.56807478
O        0.87682511      -2.11185578       1.83214722
O       -2.45620989       0.19234122      -1.15454978
O       -0.63707689      -0.38709678       2.19508722
C        0.41307411      -1.04372378       1.48885222
C       -2.17954389       0.91083722      -0.16629278
O       -0.79645389       1.28242022       0.06686722
H       -0.91308189      -1.02345778       2.95423622
H        2.73504111      -1.86511878       0.23492622
H        0.40973811       1.85392822      -2.25744678
H        3.41295511      -1.23874378      -1.99974178
H        2.17410111       0.64848722      -3.34538778
H       -3.69858489       0.89682022       1.28453922
H       -2.09556089       1.14853922       1.87772422
H       -2.85062089       2.44117522       1.02405522
