21
Properties=species:S:1:pos:R:3 -405680.9288391223=T pbc="F F F"
C        2.31732909      -0.96936727      -0.35670266
C        0.50645109       0.55249773      -1.96953866
C        2.76499909      -0.27238527      -1.49235066
C        1.86275509       0.35210873      -2.36630066
C       -2.89686891       2.16168773       0.68043434
C        1.02738809      -0.60321327       0.16780334
C        0.20269409       0.24601173      -0.57121266
O        1.25064109      -1.66625727       2.26552934
O       -2.79882991       0.07254073      -0.45685366
O       -0.73628791      -0.89444427       1.63656934
C        0.54880509      -1.13193727       1.42835034
C       -2.14680291       0.99579073       0.03472934
O       -0.75201491       1.11575673       0.07401734
H       -1.06321091      -1.25678227       2.53704734
H        2.93704609      -1.77770527       0.08082934
H       -0.26104691       0.92315373      -2.69517066
H        3.82600109      -0.33215527      -1.78399766
H        2.19645009       1.01791273      -3.26309366
H       -3.92515991       1.83395573       0.82494234
H       -2.47498891       2.64875673       1.50517234
H       -2.89467691       2.87361873      -0.13564766
