21
Properties=species:S:1:pos:R:3 -405684.3140074548=T pbc="F F F"
C        2.12485773      -0.86807123      -0.00977149
C        0.93739173       1.08428577      -1.62920549
C        2.79178573      -0.35248923      -1.13606449
C        2.13027773       0.52239877      -2.01228849
C       -3.01554027       1.72681177       0.39737851
C        0.86906773      -0.46134923       0.41845751
C        0.29053273       0.61661377      -0.45510049
O       -0.94204227      -0.82596323       1.96681851
O       -2.18453027       0.06514577      -1.27374849
O        0.81332073      -2.33857223       1.89281251
C        0.14777673      -1.13267323       1.45095551
C       -2.07297027       0.88210577      -0.39168049
O       -0.80675827       1.34330577       0.06581951
H        0.23160173      -2.47821323       2.60419651
H        2.61744673      -1.58824423       0.60392651
H        0.30632873       1.81017677      -2.20047249
H        3.68821973      -0.71649623      -1.64335149
H        2.58005973       0.92933177      -2.87495249
H       -3.87922227       1.03749277       0.47750151
H       -2.64641727       2.33754177       1.31610451
H       -3.42773127       2.51512677      -0.27329349
