21
Properties=species:S:1:pos:R:3 -405693.25855339045=T pbc="F F F"
C        2.03953991      -1.19315457      -0.41539818
C        0.90208891       1.07137243      -1.57273118
C        2.51621491      -0.68213457      -1.61434218
C        1.91510591       0.44316843      -2.25743718
C       -2.91168509       1.95313243       0.72190882
C        0.93145691      -0.63605857       0.22307882
C        0.34353691       0.51854343      -0.38005318
O        1.16602491      -1.29167957       2.50331582
O       -2.44550209       0.44532943      -1.12093518
O       -0.86882609      -1.58425557       1.57567682
C        0.40841691      -1.22543357       1.50504282
C       -2.12041809       1.03821743      -0.21660718
O       -0.74484209       1.18924843       0.19400282
H       -1.05344709      -1.91556057       2.43946582
H        2.43189391      -2.05162157       0.05778482
H        0.54395391       1.98306543      -2.13580818
H        3.29335491      -1.18514157      -2.18508618
H        2.18092791       0.90237143      -3.23290118
H       -4.02129009       1.63269943       0.69655582
H       -2.55807209       2.03156343       1.75951682
H       -2.81714609       2.97200243       0.28015682
