21
Properties=species:S:1:pos:R:3 -405686.27516165224=T pbc="F F F"
C        2.11508546      -1.11394153       0.00498172
C        1.46059346       1.41386347      -0.69860728
C        3.02742846      -0.42897253      -0.83390628
C        2.61089546       0.89019447      -1.28055528
C       -2.94040554       2.08393547       0.21465172
C        0.75984246      -0.63590453       0.32182372
C        0.54831346       0.70027047       0.11124572
O       -0.98943254      -1.19728353       1.75874172
O       -1.99959754       0.22653147      -1.06922728
O       -0.39783754      -2.66869153       0.24970072
C       -0.34405054      -1.47775953       0.82331072
C       -1.85332354       1.11603947      -0.24877128
O       -0.65338754       1.42336147       0.41919372
H       -1.28132754      -2.99644953       0.33995072
H        2.34458046      -2.14273553       0.14929572
H        1.18411146       2.44065147      -0.96959628
H        3.95268346      -0.91022453      -1.00611628
H        3.22215646       1.54913547      -1.93816928
H       -3.88926054       2.05558647      -0.38588128
H       -3.13022854       1.89366647       1.21768972
H       -2.39181354       2.94587247      -0.08394328
