21
Properties=species:S:1:pos:R:3 -405697.2386454926=T pbc="F F F"
C        1.85067769      -1.26533020      -0.43568294
C        1.55522769       1.46485280      -0.43897994
C        2.92079969      -0.42704720      -0.75603294
C        2.72175469       0.89535480      -0.87939794
C       -2.76225731       2.37683980       0.54484606
C        0.64681469      -0.75688920       0.08608606
C        0.48769869       0.65375480      -0.01243994
O       -1.60514931      -1.48067920       0.94998506
O       -1.80572431       0.97436780      -1.17595194
O        0.03194969      -3.03244720       0.60049206
C       -0.46565131      -1.75804220       0.60379006
C       -1.77964031       1.44864180      -0.07781894
O       -0.58049331       1.25395880       0.64303106
H       -0.72679131      -3.59100020       0.79334906
H        2.10209669      -2.27817420      -0.16808194
H        1.33264469       2.53192980      -0.39428294
H        3.89420869      -0.88104420      -0.90467994
H        3.56810269       1.55292580      -1.04493394
H       -3.69142531       1.88944480       0.09111106
H       -2.64086231       2.34793480       1.65784406
H       -2.62203831       3.34903180       0.08064706
