21
Properties=species:S:1:pos:R:3 -405698.53792126954=T pbc="F F F"
C        2.04773226      -1.11779655      -0.43888470
C        0.62079126       0.96016345      -1.66895370
C        2.43628326      -0.54863055      -1.69420070
C        1.70966126       0.42258445      -2.34859670
C       -2.99839974       1.64954545       0.61407730
C        0.97272026      -0.54418455       0.26102830
C        0.23829326       0.47713745      -0.41376970
O        0.77230226      -2.11165755       2.05399830
O       -2.31335574      -0.06800955      -1.20347870
O       -0.14328474      -0.09023755       2.37352330
C        0.56249426      -0.97571255       1.60484630
C       -2.06779374       0.79577545      -0.33318670
O       -0.84493374       1.14142245       0.19159730
H       -0.28181674      -0.64964455       3.14727430
H        2.62782526      -1.83912255       0.16066230
H        0.06229426       1.81841945      -2.08923070
H        3.33449226      -0.85123655      -2.16636970
H        2.07687326       0.78250445      -3.30863970
H       -2.94448174       0.99365045       1.52995330
H       -2.60042174       2.58821445       0.86687930
H       -4.06664274       1.74470945       0.25086930
