21
Properties=species:S:1:pos:R:3 -405685.48041597626=T pbc="F F F"
C        2.04619537      -1.26720465      -0.07798001
C        1.52111237       1.45913435      -0.58187801
C        2.92737337      -0.59839265      -0.89663801
C        2.59446037       0.71141035      -1.16289001
C       -2.97129963       1.49248735       0.76112799
C        0.75934637      -0.71765865       0.28884999
C        0.57851337       0.69715135       0.11848599
O       -1.43274263      -0.99017265       0.71221699
O       -1.87660463       1.10101535      -1.33900401
O       -0.20341963      -2.86958065       0.86292499
C       -0.33989763      -1.55546865       0.63321799
C       -1.71250563       1.41752035      -0.14870001
O       -0.51648963       1.42094435       0.55309099
H       -1.16545963      -3.18400465       0.94781799
H        2.24022437      -2.28094365       0.24308999
H        1.23184237       2.52488435      -0.76492101
H        3.87479037      -1.02409565      -1.19396801
H        3.40813437       1.13510035      -1.77714701
H       -3.80028263       1.90625335       0.04646999
H       -3.31165163       0.49831435       1.00230899
H       -2.86651963       2.14120335       1.66820399
