21
Properties=species:S:1:pos:R:3 -405684.4808027535=T pbc="F F F"
C        1.87482346      -1.25701737      -0.31210741
C        1.55597346       1.39225563      -0.62025041
C        2.99942846      -0.52207737      -0.59669941
C        2.82287546       0.81665363      -0.89996841
C       -2.79736854       2.06549863       0.89206559
C        0.68409546      -0.81075637       0.07320859
C        0.52474046       0.65307463      -0.03994441
O       -1.59965954      -1.70778337       0.54851259
O       -2.06996554       1.40056963      -1.32429741
O        0.12924346      -2.95125437       1.05105759
C       -0.40057954      -1.76982637       0.54157959
C       -1.82991154       1.64571563      -0.17910041
O       -0.60494654       1.35394163       0.46722859
H       -0.70242854      -3.43683437       1.18773559
H        1.99044246      -2.37371137      -0.19493841
H        1.42045846       2.43331563      -0.68822141
H        3.93453846      -1.00985437      -0.68659441
H        3.66587246       1.42356563      -1.30794841
H       -3.87575754       1.71911863       0.87012659
H       -2.57309054       1.99959263       1.96989359
H       -2.77329454       3.11501263       0.65418259
