21
Properties=species:S:1:pos:R:3 -405683.68391045963=T pbc="F F F"
C        2.16057061      -1.08089473      -0.28179233
C        0.83246961       1.06916927      -1.47963933
C        2.61220761      -0.52804973      -1.44355233
C        1.96212561       0.52450227      -2.04037233
C       -3.22761439       1.60624527       0.54280167
C        1.02110861      -0.50398373       0.31438767
C        0.31498761       0.52097327      -0.23968533
O        0.91095261      -2.30670673       1.83691067
O       -2.25038839       0.54458227      -1.27983833
O       -0.80102139      -0.89571673       1.87111367
C        0.44765061      -1.26699373       1.43160667
C       -2.07832339       1.08862327      -0.23836033
O       -0.70572639       1.37310027       0.26385467
H       -0.98708939      -1.51338373       2.56036967
H        2.75796461      -1.84824373       0.34139967
H        0.23345761       1.67279727      -2.17285933
H        3.38074961      -0.99092073      -2.03540733
H        2.42201761       0.85534027      -3.00614033
H       -3.53769639       0.85086727       1.33191067
H       -3.05736639       2.59740227       1.13461867
H       -4.20633339       1.74401127       0.01673467
