21
Properties=species:S:1:pos:R:3 -405695.5439295097=T pbc="F F F"
C        1.65547588      -1.36302650      -0.58571733
C        0.72432788       0.92702050      -1.85905333
C        2.55106288      -0.69104450      -1.45895933
C        2.02930988       0.43502450      -2.13975933
C       -2.53002712       2.24377550       1.12431267
C        0.38961688      -0.88614050      -0.28667233
C       -0.05090612       0.34646850      -0.83553733
O       -1.11935412      -1.13726350       1.63251967
O       -0.07962612       2.07724150       1.26459367
O        0.00790788      -2.94006050       0.81018567
C       -0.29132512      -1.56394750       0.80042067
C       -1.14067712       1.71624350       0.84933667
O       -1.25666512       0.92155450      -0.29779533
H       -0.52022412      -3.20976750       1.57115967
H        1.95196588      -2.25437650      -0.03310033
H        0.25456188       1.87178450      -2.25651533
H        3.49328488      -1.05079550      -1.85454333
H        2.56712688       0.68532450      -3.02832733
H       -3.00256312       2.60071650       0.20721867
H       -3.11974812       1.50490450       1.63482567
H       -2.50843012       3.10523550       1.93835867
