21
Properties=species:S:1:pos:R:3 -405688.182813712=T pbc="F F F"
C        1.90746809      -1.10007939      -0.37961809
C        0.84440409       1.31957161      -1.36578309
C        2.60646709      -0.56611739      -1.48089509
C        2.01140709       0.68465961      -2.02329409
C       -3.14087191       1.81420461      -0.11648809
C        0.85744009      -0.45437739       0.25790391
C        0.38222109       0.74976661      -0.22955209
O        0.44831909      -2.46523139       1.45205691
O       -2.09765091      -0.17237039      -0.87625709
O       -0.21665691      -0.56554739       2.45561491
C        0.29292409      -1.29285339       1.38667791
C       -2.03156391       0.82207461      -0.18354109
O       -0.78636191       1.38314361       0.31477491
H       -0.54218691      -1.25579939       3.07071391
H        2.20346509      -2.07623039      -0.05609809
H        0.45381009       2.24345661      -1.83779409
H        3.28075609      -1.14217539      -2.03758609
H        2.49537309       1.16585661      -2.85930509
H       -3.69803791       1.67947161       0.84732691
H       -2.80664291       2.82594761       0.05548991
H       -3.70303691       1.90627361      -1.05935309
