21
Properties=species:S:1:pos:R:3 -405698.85499116516=T pbc="F F F"
C        1.92636313      -1.15222500      -0.39385942
C        0.89134813       1.21436700      -1.50806742
C        2.54288513      -0.49629800      -1.41100742
C        1.99836113       0.63964200      -2.02922842
C       -3.08275687       1.24016500       0.60277558
C        0.73949013      -0.60403000       0.18661158
C        0.28842313       0.60158000      -0.42020742
O        0.55788713      -2.27454900       1.83019858
O       -2.07188287       0.13760000      -1.28167942
O       -0.29098187      -0.28222800       2.28448758
C        0.30429513      -1.17491000       1.44708758
C       -2.01458687       0.84885800      -0.30190842
O       -0.77718187       1.33778700       0.08338258
H       -0.57190087      -0.76304000       3.13327158
H        2.35263713      -2.00267300       0.11635658
H        0.55755413       2.16865700      -1.93300242
H        3.39372713      -0.99016500      -1.90065842
H        2.62429413       1.22893800      -2.67755242
H       -2.85630787       2.15273500       1.16274858
H       -3.94615187       1.57887500       0.02673158
H       -3.36413287       0.48741600       1.36389458
