21
Properties=species:S:1:pos:R:3 -405694.6348344847=T pbc="F F F"
C        2.09233176      -0.91039898      -0.20689413
C        1.12377676       1.40923902      -1.48207913
C        2.82972176      -0.31249298      -1.21752813
C        2.40498676       0.84977202      -1.78820813
C       -3.19226624       1.42090302       0.19596487
C        0.86699076      -0.34044598       0.17283287
C        0.30941076       0.75166602      -0.57970013
O       -0.56523424      -0.52580498       2.26230987
O       -2.08106124      -0.53615298      -0.45810613
O        0.14408176      -2.38360298       1.24991787
C        0.06181876      -0.99140898       1.30166987
C       -2.02810624       0.62740702      -0.11782513
O       -0.81099824       1.35669302      -0.09104213
H       -0.18757024      -2.64438898       2.17449587
H        2.33980276      -1.91890698       0.26413587
H        0.93166776       2.48720402      -1.70818413
H        3.77000576      -0.82611798      -1.57631013
H        3.03596076       1.36679102      -2.53044913
H       -3.60511624       2.06880302      -0.67657313
H       -3.99679524       0.69282402       0.34955787
H       -2.91250324       2.10808302       0.99154987
