21
Properties=species:S:1:pos:R:3 -405686.61794801895=T pbc="F F F"
C        2.04893123      -0.96843763      -0.21924059
C        1.18421923       1.28756337      -1.51346159
C        2.91680323      -0.40424063      -1.23368259
C        2.41965623       0.77758737      -1.90000959
C       -2.98606677       1.45204737       0.56055641
C        0.82636023      -0.43635563       0.09566141
C        0.32350623       0.68309237      -0.63296159
O       -0.44128877       0.00120537       2.04899641
O       -2.24662577      -0.75813363      -0.35096359
O        0.04729023      -2.19058863       1.66081241
C        0.04026523      -0.85131363       1.32346641
C       -2.08526577       0.46995637      -0.18230259
O       -0.86954777       1.20364237      -0.48778759
H       -0.33551877      -2.30001063       2.49369441
H        2.39400423      -1.92815863       0.29580141
H        0.83328223       2.21595337      -2.06580659
H        3.68470023      -0.95624963      -1.60392859
H        2.90833023       1.26884737      -2.75335959
H       -3.55818877       1.02890537       1.35608541
H       -2.41378477       2.35153837       0.94459941
H       -3.62793077       2.06420237      -0.15408059
