21
Properties=species:S:1:pos:R:3 -405697.4080964289=T pbc="F F F"
C        1.61159883      -1.45613451      -0.68024072
C        0.81365983       1.09686449      -1.79963872
C        2.45324183      -0.70502251      -1.53952372
C        2.07678683       0.54055249      -2.08797872
C       -2.34558817       2.25842649       1.07792528
C        0.34695283      -0.94098251      -0.33983972
C        0.00814783       0.37285749      -0.91022472
O       -1.60562917      -1.19737551       1.08925128
O       -0.08096017       1.53511849       1.52365328
O        0.20495983      -2.58724451       1.48558728
C       -0.40937017      -1.51406951       0.82584828
C       -1.03040417       1.55245249       0.81259628
O       -1.15294817       1.10188349      -0.52228472
H       -0.47878117      -2.85250051       2.19405028
H        1.89813183      -2.43071551      -0.28794572
H        0.36179783       2.02049149      -2.16981372
H        3.45875383      -1.07947351      -1.88528272
H        2.80864483       1.10239449      -2.69155072
H       -2.39453717       2.76410249       2.04023228
H       -2.57993017       2.87220349       0.14277928
H       -3.23329417       1.46996249       1.16103128
