21
Properties=species:S:1:pos:R:3 -405672.16946266865=T pbc="F F F"
C        2.15906998      -1.00124079      -0.31091618
C        1.00318998       1.11460221      -1.57729318
C        2.86696098      -0.40912779      -1.23362318
C        2.22213298       0.60544921      -1.96447418
C       -2.93632202       1.71495621       0.87120482
C        0.83225598      -0.57068879       0.16283482
C        0.29326398       0.70427221      -0.46536818
O        0.91414598      -2.25367179       1.87753482
O       -2.52659102       0.12404021      -0.95623818
O       -1.02442802      -0.82480579       1.71352382
C        0.32222398      -1.39184879       1.34099482
C       -2.07843302       0.89844621      -0.07746918
O       -0.80451902       1.39419021      -0.15906018
H       -1.37329002      -1.40342179       2.41204782
H        2.68136998      -1.70392479       0.30045882
H        0.54563998       2.02529121      -2.04582618
H        3.80353598      -0.81789479      -1.65877718
H        2.59901498       0.91663821      -2.91958618
H       -4.05935802       1.77426521       0.73882682
H       -2.75470002       1.41025821       1.96360582
H       -2.60049002       2.73831721       0.66326382
