21
Properties=species:S:1:pos:R:3 -405695.40752370266=T pbc="F F F"
C        1.91752772      -1.13216999      -0.28754041
C        1.02896672       1.14810701      -1.49690441
C        2.69817472      -0.51667099      -1.29631641
C        2.32234972       0.66738501      -1.93993641
C       -3.21294428       1.57927101       0.36473759
C        0.75722472      -0.48448799       0.19119059
C        0.26996872       0.62070801      -0.49779641
O       -0.79512728      -0.46281899       1.96779759
O       -2.05792528      -0.29573099      -0.88695241
O        0.82268672      -2.06160299       1.98978359
C        0.16226372      -0.98988099       1.48163959
C       -2.04630528       0.77113001      -0.32303641
O       -0.83110428       1.38549901      -0.10479441
H        0.25732472      -2.38774399       2.74592559
H        2.30322672      -2.04963899       0.27515559
H        0.65011372       2.01465701      -2.03658141
H        3.46704772      -1.24858599      -1.63604741
H        2.66649472       1.01593701      -2.89409441
H       -3.70707028       1.01756801       1.20508959
H       -2.72683128       2.46951201       0.90969259
H       -3.90030628       2.13158201      -0.34595141
