21
Properties=species:S:1:pos:R:3 -405692.9150878221=T pbc="F F F"
C        1.82908109      -1.39624797      -0.44795571
C        1.26689509       1.36311003      -0.77546171
C        2.59529809      -0.57422597      -1.32273871
C        2.42978409       0.83592303      -1.41102971
C       -2.92061491       1.80524403       0.48446129
C        0.65294009      -0.78600997       0.10081829
C        0.41089809       0.55797503       0.01636729
O       -1.49116891      -1.49979197       0.92280429
O       -1.58903091       1.06912903      -1.36003671
O        0.46549509      -2.28027797       1.78124829
C       -0.29693991      -1.59097197       0.91246829
C       -1.69946291       1.38525703      -0.23227071
O       -0.56692391       1.29409503       0.69150429
H       -0.16187491      -2.65918597       2.47405529
H        1.96033109      -2.46561697      -0.34855371
H        1.11422809       2.45024903      -0.71227671
H        3.36139309      -0.99527597      -1.93529371
H        3.14332809       1.45148803      -1.85304871
H       -3.63032691       2.04167403      -0.30170971
H       -3.30090491       0.91136303       0.93354729
H       -2.80831991       2.70011603       1.29293029
