21
Properties=species:S:1:pos:R:3 -405676.18242003425=T pbc="F F F"
C        1.78660970      -1.57988258      -0.47154797
C        0.98679370       1.02646942      -1.59595197
C        2.58589570      -0.76249658      -1.26396697
C        2.22438270       0.46148542      -1.85095497
C       -2.41687930       1.61955442       1.46604603
C        0.61850170      -0.93761658      -0.03767397
C        0.25896970       0.30582442      -0.61794997
O       -0.56142530      -1.61655258       1.98816103
O       -0.75728930       3.08705142       0.38999803
O       -1.07149730      -2.63766458       0.11918903
C       -0.33488530      -1.68950958       0.77851903
C       -1.31349830       2.02008242       0.53575303
O       -0.87438030       0.77313042      -0.16252497
H       -1.72173930      -3.04111458       0.81539703
H        2.20618770      -2.56221458      -0.13228197
H        0.47645870       1.81777442      -2.12848697
H        3.50784070      -1.15694958      -1.65906497
H        2.81867070       0.93791742      -2.68668697
H       -3.15274730       2.48200642       1.48790703
H       -2.66089730       0.64551442       1.16050103
H       -2.00343930       1.60698642       2.49521803
