21
Properties=species:S:1:pos:R:3 -405684.0695564221=T pbc="F F F"
C        1.83597973      -1.31126929      -0.65247028
C        0.58989573       1.07949671      -1.52153628
C        1.98345373      -0.73359629      -1.93458828
C        1.39445273       0.41389271      -2.42748028
C       -2.90009427       1.50460871       0.60494672
C        0.98152473      -0.65176629       0.26308972
C        0.35119473       0.53873171      -0.25418028
O        1.38953573      -1.15327829       2.61305972
O       -2.02355827       0.30944171      -1.36839028
O       -0.67808827      -1.02340429       1.93996672
C        0.64713373      -0.93450029       1.69100772
C       -1.90131827       0.88189171      -0.30206128
O       -0.70447227       1.10562071       0.38635872
H       -0.72558527      -1.21998629       2.93220572
H        2.09177673      -2.33432629      -0.47361528
H        0.13582573       1.99827271      -1.84922728
H        2.54488073      -1.24611529      -2.67909128
H        1.72736573       0.68124971      -3.51124728
H       -3.89836827       1.76865771       0.30095972
H       -2.96783927       0.71598671       1.38776972
H       -2.41223327       2.34722471       1.19486572
