21
Properties=species:S:1:pos:R:3 -405692.3153947071=T pbc="F F F"
C        1.99522535      -1.24898979      -0.09902711
C        1.43498535       1.43591921      -0.68404911
C        2.93314235      -0.52868479      -0.75202111
C        2.59982935       0.74304121      -1.08146211
C       -2.79750765       2.07984121       0.87431289
C        0.74673735      -0.70182979       0.18146889
C        0.52035335       0.69428821      -0.00905311
O       -1.55124265      -1.46244079       0.18479389
O       -1.88643965       1.20201821      -1.17328811
O       -0.04740465      -2.91046779       0.94869789
C       -0.38943665      -1.63786979       0.50346089
C       -1.76366665       1.44525921      -0.00598411
O       -0.52188165       1.20163921       0.75493389
H       -0.94016465      -3.23109179       1.26597289
H        2.13253535      -2.31250179       0.13194189
H        1.36950335       2.58571121      -0.75517611
H        3.89086835      -0.96305179      -1.09462911
H        3.43958035       1.42098321      -1.34308011
H       -2.34679665       2.87430121       1.42431189
H       -3.58469065       2.35626621       0.16748389
H       -3.23136865       1.36365121       1.62175789
