21
Properties=species:S:1:pos:R:3 -405673.724338722=T pbc="F F F"
C        1.89078510      -1.32270019      -0.07545384
C        1.39845510       1.33815681      -0.52741284
C        2.86123110      -0.46513419      -0.80066484
C        2.61155810       0.82846081      -0.99188884
C       -2.75173390       2.27125581       0.51265616
C        0.70694410      -0.72353719       0.38619916
C        0.46062910       0.66859281       0.17033816
O       -1.49918990      -1.44307819       1.12504816
O       -1.71012890       1.15267581      -1.35486084
O        0.00645410      -2.98501519       0.12555116
C       -0.40342690      -1.68117019       0.69808716
C       -1.68719490       1.37643681      -0.13009584
O       -0.69732790       1.24404381       0.69306516
H       -0.46722390      -3.62168319       0.63965316
H        2.12168110      -2.39187119       0.12137416
H        1.29007310       2.36126581      -0.53888084
H        3.85609010      -0.63901819      -1.13063184
H        3.35302710       1.52548281      -1.30676184
H       -3.76960490       2.31109181      -0.01141384
H       -2.72571490       2.10352381       1.60837816
H       -2.33241790       3.31964381       0.30172216
