21
Properties=species:S:1:pos:R:3 -405687.02969477914=T pbc="F F F"
C        1.59450394      -1.55753605      -1.02319801
C        0.92376594       1.09280095      -1.51089701
C        2.25489194      -0.88546405      -1.94110601
C        1.83077494       0.44327295      -2.26474901
C       -2.68508306       2.19343095       0.88756399
C        0.62978494      -0.95376505      -0.22163501
C        0.26814994       0.38860695      -0.54927901
O       -1.22318906      -1.05077305       1.26960499
O       -0.39679206       2.13501795       1.61637699
O        0.16562694      -2.84770505       1.31026699
C       -0.15330906      -1.59505605       0.86361499
C       -1.22843306       1.76756995       0.81037099
O       -0.99204406       0.91530495      -0.23479201
H       -0.59810406      -3.05558305       1.96179099
H        1.89639994      -2.59272905      -0.75294701
H        0.45132494       2.05730895      -1.84257701
H        2.95442594      -1.44376005      -2.58544101
H        2.11518194       0.93415995      -3.18376001
H       -3.31126306       1.34227395       1.03747399
H       -2.68526106       2.97945595       1.57794499
H       -2.89709806       2.59666695      -0.15304601
