21
Properties=species:S:1:pos:R:3 -405683.69034129847=T pbc="F F F"
C        2.07357956      -0.97844495      -0.27684369
C        0.76230556       1.00712905      -1.65132369
C        2.60283456      -0.52032995      -1.47331469
C        1.93714256       0.45576405      -2.18262269
C       -3.08782944       1.43953705       0.62415731
C        0.80103356      -0.55073495       0.26320031
C        0.30020056       0.61511505      -0.39534669
O        0.94708356      -2.18985295       2.03201231
O       -2.30062544       0.33200005      -1.32468469
O       -0.57839344      -0.40276195       2.07201331
C        0.44854356      -1.12960595       1.52401231
C       -2.03900144       0.90071705      -0.26542869
O       -0.78867244       1.09058705       0.20074431
H       -0.73879744      -0.89785795       2.92733731
H        2.76609756      -1.71829595       0.26781031
H        0.29269156       1.95533705      -2.15138569
H        3.58458256      -0.95539395      -1.81968869
H        2.11849156       0.73164005      -3.22594269
H       -3.24922144       2.32802305       0.02076331
H       -4.01375144       0.77896505       0.61702331
H       -2.81384144       1.59246805       1.71291731
