21
Properties=species:S:1:pos:R:3 -405687.56894622504=T pbc="F F F"
C        2.04832555      -1.18418814      -0.04503961
C        1.10126455       1.27297486      -0.73168061
C        2.75998355      -0.42834614      -1.10437861
C        2.19020255       0.74252086      -1.46115761
C       -3.00941945       2.06230786       0.30017439
C        0.80366555      -0.80810514       0.43663539
C        0.32035055       0.47315886       0.03869239
O       -1.32652845      -1.55816514       1.17323439
O       -1.49935945       1.80596186      -1.61077761
O        0.46550755      -3.01189014       1.46028739
C       -0.11524645      -1.75221114       1.09704239
C       -1.70059545       1.69286186      -0.45014761
O       -0.91945345       0.96410086       0.48178739
H       -0.05228445      -3.27998314       2.29514639
H        2.42948055      -2.23580614       0.09385039
H        0.87643755       2.31809586      -0.99035261
H        3.65789655      -0.75035114      -1.57730061
H        2.81232255       1.32976686      -2.20792761
H       -3.83917345       2.00818886      -0.42599961
H       -3.21955045       1.36965986       1.10956539
H       -2.98434045       3.14888686       0.68444939
