21
Properties=species:S:1:pos:R:3 -405689.3200546058=T pbc="F F F"
C        2.21009461      -0.83623259      -0.03167229
C        0.53624761       0.71495241      -1.82586629
C        2.68624461      -0.33953059      -1.26162629
C        1.89347761       0.34572141      -2.14727629
C       -3.28148339       1.18459341       0.37802471
C        0.88354261      -0.66963659       0.23382171
C        0.01185061       0.10793041      -0.63941429
O        1.26946061      -2.04016359       2.15395171
O       -1.57585239       2.41081441      -0.81895229
O       -0.75478739      -1.19318959       1.96524771
C        0.47088061      -1.40383159       1.56189071
C       -2.03373439       1.42965241      -0.34288929
O       -1.27114439       0.26026941      -0.12932229
H       -0.93729039      -1.50611859       2.91426371
H        2.86795261      -1.25444759       0.84055171
H       -0.12424939       1.32610441      -2.39924429
H        3.74139161      -0.47208759      -1.64831629
H        2.21027361       0.83745541      -3.07426729
H       -3.42043539       1.94083141       1.16165571
H       -4.05515339       1.47008741      -0.36040629
H       -3.47761739       0.22809241       0.76130171
