21
Properties=species:S:1:pos:R:3 -405692.1771695093=T pbc="F F F"
C        1.55812001      -1.46075284      -0.69683270
C        0.84419301       1.02558216      -1.81551170
C        2.24150101      -0.89654784      -1.78461070
C        1.97229101       0.37458216      -2.30692270
C       -2.64547299       1.75533316       1.12124130
C        0.44914001      -0.78456084      -0.23848770
C        0.08608601       0.44994916      -0.80996670
O       -1.39460799      -1.20757284       1.41024030
O       -0.19110399       2.03305816       1.50069530
O        0.35569301      -2.71435384       1.32123330
C       -0.31792299      -1.43363484       0.94856230
C       -1.14305199       1.69389616       0.78924730
O       -0.99428599       1.26412516      -0.52151470
H       -0.13916899      -3.01650084       2.05609330
H        1.95950901      -2.34604684      -0.20924470
H        0.75383401       2.13407116      -2.02163570
H        3.11035101      -1.50509184      -2.09409070
H        2.43830801       0.75935216      -3.20767870
H       -2.89753499       2.49629716       1.91420930
H       -3.16347299       1.93241016       0.17762230
H       -3.01539299       0.84192416       1.56672930
