21
Properties=species:S:1:pos:R:3 -405666.372631253=T pbc="F F F"
C        2.09105700      -1.17882566      -0.34025267
C        0.84562300       1.10081834      -1.40765667
C        2.34592700      -0.76408466      -1.71079267
C        1.80104100       0.37872434      -2.15332667
C       -2.92933200       1.55497934       0.64065033
C        0.91335200      -0.59906866       0.25787833
C        0.32099700       0.59888934      -0.34112867
O        0.91378400      -1.12263466       2.59980933
O       -2.05755800       0.59580534      -1.34720767
O       -0.96587200      -1.58205966       1.36625033
C        0.38334600      -1.14741766       1.44368833
C       -1.87909700       1.02798134      -0.18699267
O       -0.65271300       1.21009934       0.37064633
H       -1.28639800      -1.75185866       2.28149133
H        2.61356100      -2.03489666      -0.06088467
H        0.45890400       2.02851734      -1.67645267
H        3.29533100      -1.01034966      -2.24667767
H        2.30358400       0.77381334      -3.04157067
H       -3.64166900       2.19710134       0.04885433
H       -3.59863100       0.63273034       0.75308033
H       -2.65630100       1.85599634       1.71799033
