21
Properties=species:S:1:pos:R:3 -405692.4061397273=T pbc="F F F"
C        2.25212407      -0.90838389      -0.18520196
C        0.71638307       0.84284811      -1.77987896
C        2.71068707      -0.44535389      -1.37508296
C        1.99039207       0.34560711      -2.23906296
C       -3.10660993       1.70956411       0.71622804
C        0.90572607      -0.55723089       0.25295504
C        0.22374707       0.47929611      -0.49297696
O        1.13689607      -1.99632389       2.25723404
O       -2.38397893       0.70123411      -1.35372096
O       -0.87669793      -1.10614589       1.87289704
C        0.47018807      -1.26833489       1.52021604
C       -2.10103693       1.13852511      -0.24727896
O       -0.82389093       1.16808511       0.18253804
H       -0.91003893      -1.80369689       2.60348304
H        2.74717007      -1.61690089       0.52146504
H        0.28825807       1.66757011      -2.33339096
H        3.79224907      -0.76513189      -1.69257196
H        2.37935907       0.79707111      -3.15341596
H       -2.70468493       2.51989611       1.38422604
H       -3.89399193       2.14830811       0.10533804
H       -3.27741393       0.70996111       1.20836204
