21
Properties=species:S:1:pos:R:3 -405679.6625244728=T pbc="F F F"
C        2.19783276      -1.05801988      -0.21142526
C        0.79772076       0.96496112      -1.54016026
C        2.57719876      -0.66308388      -1.43468126
C        1.93067776       0.32804112      -2.12129026
C       -2.91512124       1.50368012       0.79749074
C        1.02590076      -0.44653088       0.30446874
C        0.31631576       0.54586912      -0.33784926
O        1.18505776      -1.76322188       2.29544474
O       -2.49360524       0.77341012      -1.45696926
O       -0.86595624      -0.99690588       1.53348274
C        0.48113276      -1.13210088       1.51082774
C       -2.16242224       1.02914312      -0.32486926
O       -0.89398924       1.00832012       0.19800474
H       -1.16043724      -1.66815288       2.16555574
H        2.73041176      -1.84855188       0.37100174
H        0.38849976       1.78430412      -2.07713026
H        3.36062776      -1.26458588      -1.98056826
H        2.46366076       0.82147912      -2.94753226
H       -2.36534224       1.95459512       1.67499674
H       -3.83770924       2.14221512       0.56147174
H       -3.47542424       0.84294312       1.42206574
