21
Properties=species:S:1:pos:R:3 -405691.51422122645=T pbc="F F F"
C        2.18412131      -0.89672965      -0.15341346
C        0.64414531       0.90713135      -1.66698946
C        2.67436331      -0.40979565      -1.32856646
C        1.86331431       0.50839735      -2.13915546
C       -3.08242269       2.17671435       0.10448454
C        0.94162731      -0.47824465       0.35485154
C        0.22197931       0.45979835      -0.29601546
O        1.15957131      -2.24214565       1.99690254
O       -2.36878469       0.25481335      -1.11200646
O       -0.70540269      -1.03364165       2.01739154
C        0.44215431      -1.32299465       1.50606054
C       -2.07455169       1.06445035      -0.31675146
O       -0.81819469       1.14221535       0.25634254
H       -1.01946869      -1.79762765       2.52396554
H        2.81520231      -1.54953465       0.41240354
H        0.00742731       1.65461335      -2.13592146
H        3.65439831      -0.80680965      -1.70409046
H        2.28597331       1.09768535      -2.93300146
H       -3.18281669       2.17064535       1.21090554
H       -2.69092769       3.17803835      -0.06174046
H       -3.91944369       1.95268135      -0.58300646
