21
Properties=species:S:1:pos:R:3 -405678.17394196894=T pbc="F F F"
C        2.30967025      -0.76429527      -0.18376064
C        0.46995525       0.67801973      -1.77050264
C        2.59965325      -0.46900027      -1.53544664
C        1.67903925       0.20673073      -2.29897864
C       -3.30690575       1.92097573       0.20929836
C        1.03839625      -0.31797727       0.37390036
C        0.09222725       0.42117773      -0.40116764
O        0.73482625      -2.38503327       1.78539836
O       -2.60074175       0.27843773      -1.35376664
O        0.58627325      -0.33261627       2.76225236
C        0.73295525      -1.15085027       1.69217436
C       -2.32014475       0.95225173      -0.32056164
O       -1.05358975       1.01620573       0.19012136
H        0.57191225      -0.91126427       3.50913736
H        3.11174625      -1.28284427       0.38120436
H       -0.31090775       1.05606473      -2.45930464
H        3.42796925      -0.87074927      -2.09332364
H        1.98551525       0.59859973      -3.31247464
H       -3.05100875       2.89864673       0.56001736
H       -3.99378675       2.06258573      -0.76926264
H       -3.94252375       1.44632673       0.90333636
