21
Properties=species:S:1:pos:R:3 -405686.8860502512=T pbc="F F F"
C        1.83473837      -1.36995707      -0.35902486
C        1.57988237       1.34307993      -0.43985086
C        2.84305037      -0.62338107      -0.94023286
C        2.76606537       0.72764693      -0.85789886
C       -2.85391463       1.73123193       0.82172214
C        0.64601037      -0.70640407       0.09117114
C        0.47586737       0.65349993      -0.03793886
O       -1.60823663      -1.58227807       0.72796214
O       -1.90381663       1.60039693      -1.51614886
O        0.30935637      -2.78133707       1.26016014
C       -0.36067463      -1.58229807       0.73105714
C       -1.89633163       1.51693593      -0.29084386
O       -0.63120163       1.36050193       0.39302614
H       -0.50333363      -3.34360307       1.53553014
H        1.84185337      -2.45814707      -0.40883686
H        1.46527237       2.39374693      -0.47803386
H        3.79582337      -1.11825307      -1.24325086
H        3.54177137       1.43029093      -1.20995886
H       -3.79395063       2.23556493       0.53020614
H       -3.21231663       0.77076593       1.29736014
H       -2.23559963       2.22499993       1.51145914
