21
Properties=species:S:1:pos:R:3 -405684.0769474464=T pbc="F F F"
C        2.13677580      -0.77617962      -0.09752565
C        1.12693080       1.34163338      -1.45345365
C        2.89592980      -0.16624562      -1.13010365
C        2.39049880       0.93758238      -1.83806865
C       -3.30378320       1.54343938      -0.24536965
C        0.77148680      -0.44229162       0.15726335
C        0.28536580       0.67645038      -0.46204465
O       -0.11397120      -0.66816062       2.42288835
O       -2.09460820      -0.54169762       0.15937035
O       -0.18211920      -2.41900962       0.92045135
C        0.23962880      -1.17888862       1.36378535
C       -2.08166320       0.69105138      -0.06702865
O       -0.88622420       1.41425238      -0.40015365
H       -0.56460820      -2.79348662       1.78156135
H        2.59555580      -1.65678362       0.43441535
H        0.68520780       2.14364938      -1.99524665
H        3.87278780      -0.51735962      -1.39283965
H        3.04268380       1.45120038      -2.46582065
H       -3.10256120       2.63256338      -0.36679065
H       -3.85610320       1.11319038      -1.03631965
H       -3.78420920       1.50068338       0.72027535
