21
Properties=species:S:1:pos:R:3 -405679.4382140968=T pbc="F F F"
C        1.91801377      -1.13496753      -0.18204741
C        1.00767077       1.19045247      -1.19886641
C        2.60058877      -0.55439353      -1.20387341
C        2.13401177       0.62971847      -1.76853341
C       -3.10280523       1.44814447       0.32404659
C        0.69615477      -0.73839653       0.35276659
C        0.33259577       0.45523847      -0.17594941
O       -1.08554723      -1.35645853       1.77654759
O       -1.70109223       1.76389947      -1.67797041
O        0.84677877      -2.50527053       1.87900059
C        0.03729777      -1.53888953       1.40457859
C       -1.84303723       1.56531647      -0.54230941
O       -0.84348023       1.00204247       0.30806859
H        0.47624277      -3.07607453       2.59368559
H        2.29927877      -1.96911853       0.36188959
H        0.57511377       2.21535547      -1.39872241
H        3.42854777      -1.12786553      -1.45919241
H        2.70101277       1.39374447      -2.41557941
H       -3.88028923       2.30119647       0.18727259
H       -3.63372523       0.36485147       0.07075459
H       -2.80619923       1.54536247       1.38867759
