21
Properties=species:S:1:pos:R:3 -405672.9401099008=T pbc="F F F"
C        2.28386678      -0.84812676      -0.09553348
C        0.58268678       0.65850924      -1.77043548
C        2.67179878      -0.52315076      -1.35856548
C        1.85030878       0.31502724      -2.19706448
C       -2.87524122       1.84791724       0.40846452
C        0.98894478      -0.49668476       0.42232652
C        0.21510778       0.24901924      -0.55368248
O       -0.62733822      -1.60319076       1.65291252
O       -2.56684922       0.47631524      -1.55176548
O        1.13352778      -0.85266176       2.84645452
C        0.39906378      -0.95248176       1.64246052
C       -2.23154722       0.88128224      -0.46607348
O       -0.89199122       0.79491124       0.12292152
H        0.49967878      -1.07970976       3.52705052
H        2.99882178      -1.39112576       0.50667552
H       -0.00114622       1.33956524      -2.33708948
H        3.68651578      -0.86098076      -1.57118448
H        2.09612078       0.82249424      -3.16020448
H       -2.02920822       2.16107924       1.08146652
H       -2.81671322       2.76322524      -0.26600348
H       -3.83125622       1.57599924       0.73538652
