21
Properties=species:S:1:pos:R:3 -405685.78993348795=T pbc="F F F"
C        1.65076885      -1.27871532      -0.75989267
C        1.69148485       1.46581268       0.08248133
C        2.74575085      -0.50574732      -1.01618067
C        2.75380185       0.83019468      -0.55330867
C       -2.80410415       2.22110768       0.41617133
C        0.53798985      -0.66099432      -0.12524667
C        0.54586285       0.70141368       0.14749333
O       -1.53239715      -1.44436732       1.08346433
O       -1.70462215       0.86194268      -1.27696667
O        0.10948785      -2.92692632       0.67128333
C       -0.47398515      -1.62322132       0.48553633
C       -1.73066015       1.33591368      -0.14191167
O       -0.59546015       1.32833868       0.63119733
H       -0.63645715      -3.21091132       1.25652633
H        1.72224385      -2.35440232      -0.85995967
H        1.43389185       2.48034868       0.13849433
H        3.55282685      -0.88236632      -1.62235167
H        3.74832585       1.40531568      -0.54605067
H       -3.76844415       2.06033868      -0.15836767
H       -3.09115215       2.30081068       1.45445933
H       -2.41945715       3.21754668       0.17877333
