21
Properties=species:S:1:pos:R:3 -405682.73464095057=T pbc="F F F"
C        2.03895384      -1.09156984      -0.15207440
C        1.26989184       1.28102616      -1.07602340
C        2.77756784      -0.48684484      -1.15979340
C        2.45259384       0.79285316      -1.55150840
C       -3.16452016       1.91739116       0.09618660
C        0.83240184      -0.55604484       0.34793260
C        0.44958884       0.73173116      -0.10489640
O       -0.71695316      -0.78567384       2.02836060
O       -1.99597816       0.07440416      -1.03373640
O        0.02987184      -2.70077584       0.85369460
C       -0.03272216      -1.33220484       1.20533960
C       -2.00712116       1.06422316      -0.29475440
O       -0.73025216       1.44207116       0.32518260
H       -0.58170616      -3.21255884       1.50891860
H        2.44694884      -1.96662184       0.44079460
H        0.87763384       2.25124616      -1.54384240
H        3.70583384      -1.03507284      -1.45976040
H        3.25618284       1.21014616      -2.12902640
H       -3.65542816       1.48363816       0.92288260
H       -2.98979216       2.93049116       0.52339660
H       -3.85741716       1.97313816      -0.73390040
