21
Properties=species:S:1:pos:R:3 -405679.31259159493=T pbc="F F F"
C        1.98039010      -1.04215897      -0.38859210
C        0.95740910       1.23812403      -1.46543710
C        2.71255310      -0.37366897      -1.43875110
C        2.19793810       0.82421103      -1.90584810
C       -2.93087990       2.11754503       0.22286890
C        0.82846210      -0.50757297       0.30727490
C        0.26794410       0.56512403      -0.38067810
O        0.83592210      -2.50553697       1.64033090
O       -2.52672590       0.02299403      -0.96217310
O       -0.48338190      -0.78637797       2.27798690
C        0.34697610      -1.43362797       1.40370990
C       -2.15975990       0.97399203      -0.32336110
O       -0.91089190       1.07647503       0.13828490
H       -0.97595990      -1.46804097       2.86400690
H        2.50881610      -2.01150897       0.03619090
H        0.32058510       2.11463203      -1.61135510
H        3.76176810      -0.58342897      -1.55177910
H        2.72858510       1.32681103      -2.77778010
H       -3.98729190       2.07761503      -0.13019110
H       -2.92453990       2.18510603       1.36931490
H       -2.49052190       3.03098303      -0.05326410
