21
Properties=species:S:1:pos:R:3 -405684.70934232837=T pbc="F F F"
C        1.74878603      -1.27709017      -0.42365915
C        1.55091703       1.41317783      -0.41503015
C        2.76471403      -0.51752817      -1.09920215
C        2.63037603       0.82891183      -1.01777715
C       -2.92174597       2.04458083       0.46094085
C        0.61723003      -0.69444417       0.15709385
C        0.43446103       0.72162783       0.04048085
O       -1.43652997      -1.37245417       1.26455985
O       -1.75067597       0.84725983      -1.44961315
O        0.27408803      -2.78310717       1.19113985
C       -0.30598397      -1.56250717       0.89345385
C       -1.77613997       1.27835183      -0.30342515
O       -0.67006097       1.40666083       0.31896485
H       -0.47996697      -3.26963217       1.62790985
H        1.83688703      -2.32557517      -0.41166715
H        1.49604603       2.47976483      -0.44855915
H        3.48833603      -1.14021717      -1.54657515
H        3.42745503       1.39326983      -1.61746715
H       -3.65918597       1.25744683       0.54441685
H       -2.56607097       2.43107683       1.47136985
H       -3.14534597       2.74156283      -0.32251815
