21
Properties=species:S:1:pos:R:3 -405686.10524279857=T pbc="F F F"
C        2.21569554      -0.97049212      -0.06290387
C        0.88426454       0.98630488      -1.67161187
C        2.79547354      -0.65435312      -1.32043487
C        2.11883954       0.28387888      -2.11510587
C       -3.15117546       1.64438688       0.52846213
C        0.95394354      -0.36623312       0.27885413
C        0.21840854       0.65077388      -0.46192387
O       -0.95843246      -1.38297512       1.63579313
O       -2.29271546       0.34983988      -1.34922387
O        1.13539854      -1.57864912       2.40870613
C        0.23106754      -1.19218112       1.47366713
C       -2.18859146       1.00344888      -0.34657287
O       -0.92210746       1.39047088       0.13376713
H        0.63395054      -2.00075712       3.15609513
H        2.55561554      -1.74763312       0.69199813
H        0.43643854       1.64581888      -2.44568787
H        3.80856654      -1.06023712      -1.58515487
H        2.41640654       0.64309388      -3.07345787
H       -3.17195846       1.16749488       1.57746413
H       -2.91453446       2.71787688       0.69144613
H       -4.10665746       1.52015988       0.11467013
