21
Properties=species:S:1:pos:R:3 -405694.05962284317=T pbc="F F F"
C        1.83902761      -1.29163193      -0.26774116
C        1.35467061       1.48215207      -0.49756516
C        2.84543361      -0.52736793      -0.74907616
C        2.54838061       0.87377607      -0.87918316
C       -2.71965339       2.33653307       0.43211484
C        0.68240961      -0.76072593       0.21671884
C        0.47090761       0.64742907       0.17989184
O       -1.44922239      -1.49147993       1.12390784
O       -1.62841839       1.06804907      -1.30895716
O        0.00196261      -2.93342593       0.28284384
C       -0.37085739      -1.71781493       0.62849384
C       -1.73934639       1.42409207      -0.14476416
O       -0.64054639       1.19741307       0.78843584
H       -0.78268939      -3.47227193       0.46168184
H        2.01279061      -2.34540893      -0.20492216
H        1.07020661       2.60595607      -0.72235716
H        3.80056961      -1.11572993      -0.98484816
H        3.28057661       1.52505907      -1.39095116
H       -3.64351639       2.12398707       0.00335384
H       -2.84540239       2.26964007       1.51538384
H       -2.38746339       3.31321007       0.13013684
