21
Properties=species:S:1:pos:R:3 -405695.0764875793=T pbc="F F F"
C        2.12172824      -1.04299577      -0.37029150
C        0.79510124       1.04857123      -1.65341550
C        2.69411924      -0.42739577      -1.52490450
C        2.00058024       0.70835723      -2.16038350
C       -3.00355076       2.09028423       0.23086750
C        0.93379824      -0.51607577       0.28981250
C        0.27741024       0.51901623      -0.35362550
O        1.01609224      -2.13581577       2.05353450
O       -2.38497376      -0.11931177      -0.80563950
O       -0.81271376      -0.87541177       1.95205350
C        0.42339124      -1.23725777       1.50884950
C       -2.12829376       0.90308923      -0.19200150
O       -0.79520876       1.24395123       0.15223950
H       -0.90561176      -1.53286077       2.69053250
H        2.54915424      -1.85743177       0.14047450
H        0.26489024       1.82613723      -2.11285150
H        3.67017324      -0.81120777      -1.70622750
H        2.39761324       0.93936123      -3.12296150
H       -3.97470576       1.61831823       0.58567050
H       -2.53864876       2.53418823       1.14744550
H       -3.20690176       2.86849023      -0.51628650
