21
Properties=species:S:1:pos:R:3 -405687.1625462308=T pbc="F F F"
C        2.03561394      -1.13740128      -0.40452644
C        0.70445294       1.07797672      -1.52808844
C        2.35518694      -0.59455428      -1.66646644
C        1.79773894       0.53208672      -2.20395144
C       -3.00587806       1.71698272       0.57145956
C        0.93776494      -0.59977728       0.26226156
C        0.32283194       0.54593372      -0.34727444
O        1.13885194      -2.04428928       2.29450256
O       -2.20559906       0.49343172      -1.42142344
O       -0.70182206      -0.87230128       2.06356556
C        0.46569694      -1.28029428       1.60236956
C       -1.99284806       1.12245672      -0.41307144
O       -0.78684406       1.12727372       0.27946056
H       -0.60837006      -1.32410928       2.94418856
H        2.70647794      -1.99693128      -0.08935544
H        0.11383394       1.90677172      -1.89239544
H        3.18582794      -1.09977828      -2.19097544
H        1.97462994       1.00729072      -3.02524644
H       -4.04023706       1.21859772       0.42658656
H       -2.71676406       1.60142572       1.57383756
H       -3.16853006       2.78134972       0.35434756
