9
Properties=species:S:1:pos:R:3 -167090.27233782364=T pbc="F F F"
C       -0.30173213      -1.25049013       0.67103140
C        0.49108088      -0.43330311      -0.32353361
C        0.15707988       1.10426891      -0.57984862
O        0.12087988       1.63620292      -1.65684964
O       -0.44640613      -1.08161912       1.84991742
H       -0.80768014      -2.17477414       0.18642640
H        1.51223590      -0.31059311       0.15392240
H        0.33584088      -1.00195612      -1.15859863
H        0.00107488       1.58597292       0.52068540
