9
Properties=species:S:1:pos:R:3 -167091.9269197977=T pbc="F F F"
C        0.55993995      -0.60305786       0.93848819
C       -0.80498208      -0.83324186       0.28022718
C       -0.79777508       0.01276615      -1.05861785
O        0.02550094       0.80478717      -1.27516585
O        0.94048395       0.52150416       1.17156419
H        1.32402696      -1.42699387       0.91131219
H       -1.13492108      -1.86850388      -0.09983383
H       -1.62863609      -0.44752386       0.89169019
H       -1.47470509      -0.35641385      -1.96518886
