9
Properties=species:S:1:pos:R:3 -167094.23250921007=T pbc="F F F"
C        0.00326324      -0.76528732       0.85766443
C       -0.79924778       0.34498270      -0.10200859
C        0.12159124       1.28165371      -0.82466660
O        1.19520326       0.94198871      -1.29954061
O       -0.55670677      -1.76185934       1.35622444
H        0.97871425      -0.42288732       1.25311544
H       -1.48563879      -0.04904131      -0.88990360
H       -1.40690979       0.84329471       0.67373043
H       -0.18968277       2.38463973      -1.11485660
