9
Properties=species:S:1:pos:R:3 -167095.55306191253=T pbc="F F F"
C       -0.35492244       0.28918253       1.00486255
C        0.55918858      -0.82850749       0.24188854
C        0.61223558      -0.36121548      -1.18641349
O        0.63007058       0.85138954      -1.58779849
O       -1.40080246      -0.02127648       1.54344956
H        0.10942257       1.26299355       1.08359955
H        1.61100659      -0.73914749       0.67035055
H        0.24198457      -1.86464751       0.18403154
H        0.54771457      -1.11111449      -1.95256150
