9
Properties=species:S:1:pos:R:3 -167089.43766533674=T pbc="F F F"
C       -0.27160204      -0.82809647       0.57496501
C       -0.64843304       0.65823656       0.17547900
C        0.39650097       1.09605657      -0.81075301
O        0.73733498       0.43696855      -1.75016803
O       -0.23263304      -1.29621548       1.78963503
H        0.06690197      -1.50598348      -0.12727400
H       -1.65116906       0.68752356      -0.20393800
H       -0.73146105       1.23472057       1.14225802
H        0.53937298       2.19254659      -0.71932701
