9
Properties=species:S:1:pos:R:3 -167095.42920529202=T pbc="F F F"
C        0.93212052       1.14584018       0.21701525
C        0.23790551       0.07500016      -0.69882376
C       -1.06954851      -0.66482985      -0.08773075
O       -1.55489352      -1.47373487      -0.79108476
O        1.45760153       0.95569817       1.32517927
H        0.88043952       2.25253720      -0.12010275
H       -0.11501450       0.50498617      -1.65778578
H        0.97884852      -0.76609886      -0.80002076
H       -1.39654752      -0.39012785       0.88284827
