9
Properties=species:S:1:pos:R:3 -167096.2857040524=T pbc="F F F"
C       -0.56624441      -0.64582956       0.73872016
C        0.13096061      -0.75111056      -0.58853686
C        0.34716661       0.68218446      -1.25896887
O        0.20804361       1.71170948      -0.67178586
O       -0.13034440      -1.04720757       1.73669718
H       -1.48136942      -0.05079455       0.58603716
H        1.03027562      -1.37189058      -0.45260886
H       -0.35409240      -1.24823057      -1.48945688
H        0.62123962       0.63526146      -2.34276689
