9
Properties=species:S:1:pos:R:3 -167090.77280334244=T pbc="F F F"
C        0.85942806       0.22136392       0.90101439
C       -0.57102797       0.01289192       0.31826938
C       -0.56743097      -0.48110009      -1.14495964
O       -0.72390697       0.07799692      -2.19266166
O        0.99874606       0.14710392       2.12578342
H        1.52262407       0.65587093       0.07337538
H       -1.25691398      -0.71688010       1.00471640
H       -1.05813598       0.96910693       0.18058438
H       -0.24709696      -1.54147911      -1.08223464
