9
Properties=species:S:1:pos:R:3 -167094.2251079035=T pbc="F F F"
C        0.33391707       0.15630293       1.40654736
C        0.47676907      -0.66474009       0.14905034
C       -0.23427694      -0.14522808      -1.00463968
O       -0.73702995      -0.78759609      -1.94652270
O        0.20834406       1.38881795       1.41967836
H        0.19301506      -0.36623508       2.37030538
H        1.46664309      -0.58763108      -0.09477067
H        0.42404007      -1.73376210       0.44549334
H       -0.55627495       0.92888094      -0.91978868
