9
Properties=species:S:1:pos:R:3 -167094.04257219363=T pbc="F F F"
C        0.94040214       0.55992107       0.96064483
C       -0.10844687       0.86911407      -0.07099619
C       -0.50890188      -0.33131695      -0.91302720
O       -1.61049190      -0.49099095      -1.33390421
O        1.34388715      -0.53170095       1.32020284
H        1.15888715       1.45455608       1.69725584
H       -1.09659389       0.95351907       0.53583282
H       -0.08177887       1.75481809      -0.58504220
H        0.40415513      -1.00237296      -1.15223121
