9
Properties=species:S:1:pos:R:3 -167084.20899243813=T pbc="F F F"
C       -0.48861166      -0.44604587       0.85918002
C        0.59101935       0.40992315       0.32764101
C        0.18589635       0.55938415      -1.13770902
O        0.77940936       0.03598014      -2.00577303
O       -1.05213867      -0.47311987       1.96620904
H       -0.84226667      -1.37379688       0.21479701
H        0.91818536       1.24669716       1.06022302
H        1.40777337      -0.31438687       0.29336801
H       -0.58806667       1.14882716      -1.52524702
