9
Properties=species:S:1:pos:R:3 -167099.98273577195=T pbc="F F F"
C        0.89634904      -0.58067921       0.26581888
C       -0.25785998       0.43413780       0.61342089
C       -1.30735499       0.74072781      -0.44233213
O       -1.08672499       0.35686180      -1.56978615
O        1.69422506      -0.91574122       1.15885290
H        0.99680805      -1.00456022      -0.81235614
H       -0.73769598       0.12347980       1.57275890
H        0.25099703       1.38804182       0.82838889
H       -2.18750401       1.28798482      -0.26916713
