9
Properties=species:S:1:pos:R:3 -167083.90438629963=T pbc="F F F"
C        0.62312692       0.56003883       0.68110448
C        0.67837392      -0.64175619      -0.04212453
C       -0.09109809      -0.57885519      -1.32408356
O       -1.14265111       0.05515982      -1.14410855
O        0.03587791       0.54427283       1.76313750
H        0.87978092       1.52488784       0.19859847
H        1.69113694      -0.92480420      -0.13714254
H        0.41509292      -1.43942721       0.65640848
H        0.16722491      -0.80876320      -2.38489158
