9
Properties=species:S:1:pos:R:3 -167089.41362944967=T pbc="F F F"
C       -0.78854322      -0.50090957       0.84515317
C        0.42413580       0.23898745       0.24292516
C        0.30366080       0.22011844      -1.21035386
O        1.41552582       0.31247845      -1.74510787
O       -1.34579223      -0.29357556       1.86895219
H       -1.43571123      -1.15583658       0.12185516
H        0.27471280       1.27326246       0.54941017
H        1.43174682      -0.16502956       0.59357317
H       -0.65417122       0.24535045      -1.77442387
