9
Properties=species:S:1:pos:R:3 -167090.84486012836=T pbc="F F F"
C        0.36067630      -0.85575110       1.05251105
C        1.05800931       0.02228391      -0.10529697
C       -0.08201871       1.08335593      -0.31019797
O       -0.53703372       1.09870893      -1.43626299
O       -0.70667172      -1.34367511       0.84376105
H        0.81763530      -1.01942111       2.03484507
H        1.97714132       0.42299692       0.36492404
H        1.25590831      -0.35946709      -1.12087499
H       -0.22764071       1.86829994       0.53970004
