9
Properties=species:S:1:pos:R:3 -167094.62497947086=T pbc="F F F"
C        0.15378602       0.30779462       1.06856289
C        0.74199503      -0.39389239      -0.21246313
C       -0.35940199      -0.78206540      -1.28848215
O       -1.31625900      -0.02305339      -1.49798315
O        0.81393303       0.82343663       1.92147491
H       -0.99294200       0.20219862       1.08847389
H        1.34493104       0.42281862      -0.78185514
H        1.32318404      -1.34560741      -0.09252813
H       -0.08946898      -1.64500242      -1.78690916
