9
Properties=species:S:1:pos:R:3 -167097.15152218542=T pbc="F F F"
C       -0.12996334       0.36407084       1.26166385
C       -0.12367234      -0.69066918       0.10354783
C        0.14420167      -0.07416717      -1.25331419
O       -0.68962535      -0.23833717      -2.13367421
O        0.78784368       0.59757084       2.04979086
H       -1.02889835       1.01894585       1.32554685
H        0.83563568      -1.24251319       0.08170783
H       -1.07227735      -1.24942319       0.02896783
H        1.00975568       0.54353784      -1.43727720
