9
Properties=species:S:1:pos:R:3 -167096.64287945532=T pbc="F F F"
C        0.71995975       0.75575645       0.26687140
C       -0.33059027      -0.29149856       0.67855240
C       -1.19589829      -0.86908257      -0.35415562
O       -0.80091628      -0.92115457      -1.52436864
O        1.56284776       1.28433446       0.97333041
H        0.62328874       1.19011846      -0.76313662
H        0.06358973      -1.22265658       1.19478241
H       -1.01695828       0.23062845       1.31546041
H       -2.15912530      -1.14184058      -0.04185861
