9
Properties=species:S:1:pos:R:3 -167090.50488747674=T pbc="F F F"
C       -0.33854887      -1.07828240       0.55892971
C        0.57792315      -0.58867539      -0.47077730
C        0.34624715       0.85145863      -0.41549930
O       -0.05372786       1.49612064      -1.36953132
O       -0.47588287      -0.74147239       1.68047473
H       -1.12770188      -1.74618041       0.19244071
H        1.65694017      -0.74825139      -0.47045030
H        0.31354315      -1.02645540      -1.44393132
H        0.58963115       1.25408064       0.68470672
