9
Properties=species:S:1:pos:R:3 -167100.04512686824=T pbc="F F F"
C       -0.77794180      -1.05918140       0.59931224
C       -0.85499581       0.05589562      -0.41769877
C        0.39968922       0.91647763      -0.35928277
O        1.09756723       1.28485364      -1.30725579
O        0.06191621      -1.18545841       1.47095826
H       -1.48184182      -1.90311842       0.42365224
H       -1.08951081      -0.46890139      -1.34218179
H       -1.71680382       0.68897863      -0.34937777
H        0.57039022       1.13917663       0.78530825
