9
Properties=species:S:1:pos:R:3 -167091.26652744287=T pbc="F F F"
C        1.02148640       0.66176636       0.38897232
C       -0.21862463      -0.20699766       0.57724433
C       -1.06066764      -0.11853165      -0.73347270
O       -1.65750865      -0.91722567      -1.39582471
O        1.91838241       0.57740136       1.17240634
H        0.95575039       1.26614737      -0.45442369
H        0.07570338      -1.09235767       0.98409333
H       -0.98727564       0.24619835       1.22453234
H       -1.11478364       0.96975337      -0.97963270
