9
Properties=species:S:1:pos:R:3 -167097.76475090793=T pbc="F F F"
C        0.68381896       0.40924884       1.00870889
C       -0.34971205      -0.40535517       0.15822088
C       -0.49292506       0.06478583      -1.20146115
O       -0.44086105      -0.62531918      -2.17834816
O        0.59165596       0.55728584       2.20106891
H        1.49081298       0.92112685       0.42390988
H        0.00484695      -1.38664619       0.15329088
H       -1.34808507      -0.42925017       0.61572488
H       -0.64977906       1.15675285      -1.14236115
