9
Properties=species:S:1:pos:R:3 -167096.41679484284=T pbc="F F F"
C        0.44567408       0.56287792       0.83248934
C       -0.22346593      -0.79845410       0.37914833
C       -0.53969593      -0.72537910      -1.18791170
O       -0.97365994       0.26622991      -1.68473870
O        1.27586410       0.62700192       1.68152735
H        0.15530708       1.42811193       0.12251833
H        0.42985308      -1.58662512       0.73869134
H       -1.30038795      -0.92689911       0.84568934
H       -0.30069893      -1.64889512      -1.93843371
