9
Properties=species:S:1:pos:R:3 -167095.17673960418=T pbc="F F F"
C        0.14890157      -0.93786264       0.64658258
C       -0.68617944       0.16281338       0.00452657
C        0.04475957       1.21513240      -0.61505044
O        0.68235058       1.05433940      -1.68122346
O       -0.21338344      -1.45769865       1.66624059
H        1.18914259      -1.11841564       0.26661657
H       -1.07376345      -0.39786663      -0.85445845
H       -1.56559146       0.37405638       0.68729158
H       -0.12830544       2.30383542      -0.29100544
