9
Properties=species:S:1:pos:R:3 -167093.15549168058=T pbc="F F F"
C        0.69332648      -0.36812499       1.20426283
C        0.51700348      -1.00395000      -0.18456720
C       -0.17445253      -0.06858498      -1.25662822
O       -1.18505755       0.56534203      -1.19611322
O        0.21874647       0.77147903       1.41498283
H        1.11956149      -0.91044700       1.96071784
H        1.42104249      -1.37954900      -0.57026721
H       -0.07864353      -1.88958701       0.10749081
H        0.54008248       0.11695402      -2.15044523
