9
Properties=species:S:1:pos:R:3 -167095.06941991148=T pbc="F F F"
C        0.92736577      -0.49931770       0.72280893
C        0.36830476       0.14742131      -0.50174109
C       -1.02436926      -0.25540170      -1.02535510
O       -1.90500728       0.51123532      -0.77351009
O        1.65012279       0.04411031       1.51947995
H        0.53070977      -1.59417172       0.81203793
H        0.20334776       1.18856233      -0.37950509
H        1.15615678       0.10889031      -1.22786710
H       -1.07535026      -1.28602471      -1.46723811
