9
Properties=species:S:1:pos:R:3 -167096.67366602618=T pbc="F F F"
C       -0.46309816       0.09853547       1.41257876
C        0.60908586      -0.26188354       0.38861674
C        0.28965686       0.07799547      -1.13375428
O        1.16309187       0.33137647      -1.90464830
O       -1.58613318      -0.24831354       1.28187776
H        0.03121085       0.81146348       2.22765578
H        1.47996288       0.27919547       0.81011075
H        0.78028886      -1.36376656       0.30296274
H       -0.76463516      -0.02888254      -1.40401729
