9
Properties=species:S:1:pos:R:3 -167080.80583106275=T pbc="F F F"
C       -0.01632613      -0.29963312       1.07852434
C       -0.62170314       0.10088089      -0.21551868
C        0.09600387       0.12541889      -1.53678071
O        1.33390490       0.27250189      -1.42064670
O       -0.79505814      -0.13908512       2.05404036
H        0.97081989      -0.70169213       1.03531634
H       -1.09191315      -0.98003713      -0.38848669
H       -1.60875116       0.53346190      -0.11661468
H       -0.36824113      -0.09598612      -2.56010772
