9
Properties=species:S:1:pos:R:3 -167082.18626323095=T pbc="F F F"
C       -0.25887358       0.10493702       1.33219991
C       -0.15450458      -0.58706600      -0.16289711
C        0.99011444       0.05414302      -0.91851013
O        0.75782944       0.42941002      -2.15114415
O       -1.28822560      -0.05328699       1.96677892
H        0.65388344       0.82626503       1.41611891
H        0.11422443      -1.68003001      -0.27754512
H       -1.11236059      -0.33019299      -0.75776312
H        1.89492446       0.31056802      -0.44094612
