9
Properties=species:S:1:pos:R:3 -167096.14256021837=T pbc="F F F"
C        0.34389806       0.35096309       1.34037606
C       -0.88522697      -0.05897892       0.48679205
C       -0.75187996       0.16709209      -0.99872598
O       -0.28593996      -0.51623892      -1.89198599
O        1.49186808       0.06148009       1.11784006
H        0.25381205       1.09191910       2.18117308
H       -1.15046897      -1.14131294       0.75079705
H       -1.72109598       0.54566609       0.74024905
H       -1.12318497       1.25493811      -1.25007998
