9
Properties=species:S:1:pos:R:3 -167085.245751567=T pbc="F F F"
C        0.93241663      -0.15138017       1.08190702
C       -0.42658040       0.04560283       0.57009101
C       -0.64283040       0.21117183      -0.83167102
O       -1.63400542       0.66877784      -1.31997403
O        1.77714164      -0.78159218       0.51774801
H        1.08519863       0.42761284       2.11847903
H       -1.05209941      -0.73674218       0.94048501
H       -0.98904741       0.88231085       1.09011202
H        0.31543862      -0.03765017      -1.18466002
