9
Properties=species:S:1:pos:R:3 -167094.9561673967=T pbc="F F F"
C        0.97828613       0.28150164       0.39282066
C       -0.05875389      -0.76130438       0.17017565
C       -1.22195491      -0.50443838      -0.73068936
O       -1.18273291       0.50280964      -1.42410838
O        1.43516714       0.43593464       1.55961768
H        1.40564414       0.78590065      -0.37198636
H        0.44062712      -1.60535540      -0.24505236
H       -0.27006389      -1.05124839       1.22174567
H       -1.98162692      -1.30865939      -0.75864536
