9
Properties=species:S:1:pos:R:3 -167090.59320092853=T pbc="F F F"
C        0.33657549      -0.13679042       1.16005232
C       -0.07353852       0.54618659      -0.03741270
C       -0.31501652      -0.50904143      -1.08355572
O       -1.01266153      -0.29250742      -2.06710674
O        1.07313750       0.37729659       2.01068433
H       -0.07052852      -1.11683444       1.52304833
H       -1.03192953       1.02190260       0.01278930
H        0.62625150       1.47707461      -0.31527871
H        0.13532049      -1.54134944      -0.79045971
