9
Properties=species:S:1:pos:R:3 -167092.8478230996=T pbc="F F F"
C        1.19143037      -0.08600856       0.47794738
C       -0.28767965       0.09566745       0.43982537
C       -0.83079066       0.20924345      -0.96743565
O       -1.92763268       0.41426145      -1.32034166
O        1.86699939      -0.58447657       1.38667039
H        1.66531338      -0.01829556      -0.59496864
H       -0.78923666      -0.72204457       0.91118738
H       -0.63131566       0.93461446       0.97375438
H       -0.15118965      -0.09926956      -1.75133066
