9
Properties=species:S:1:pos:R:3 -167094.8714890744=T pbc="F F F"
C        0.56560831      -0.01136661       1.09887974
C        0.31634331       0.43737740      -0.32555328
C       -0.85176172      -0.14426461      -1.06852429
O       -0.84886272      -1.23395063      -1.53163230
O        0.80442031       0.94684341       1.81820276
H        0.52993731      -1.11853863       1.22998775
H        0.28373330       1.57999042      -0.31346328
H        1.27694832       0.21836139      -0.91920829
H       -1.74475173       0.52208340      -1.03052729
