9
Properties=species:S:1:pos:R:3 -167093.52352359294=T pbc="F F F"
C        1.18146739       0.04147416       0.56841054
C        0.11744437      -0.51025685      -0.59627448
C       -0.81435464       0.59983217      -0.83341049
O       -2.03566066       0.51576617      -0.74835148
O        1.56410440      -0.65890685       1.52903356
H        1.46618040       1.15493018       0.63367354
H        0.81707439      -0.54455685      -1.50056750
H       -0.29942463      -1.48505386      -0.18681047
H       -0.26942863       1.58604319      -1.08123949
