9
Properties=species:S:1:pos:R:3 -167089.92650837512=T pbc="F F F"
C        1.09851791       0.44892055       0.99983057
C        0.83277091       0.04814855      -0.45560545
C       -0.77446312       0.08101055      -0.79225346
O       -1.26611713      -0.75140147      -1.57027347
O        0.18545790       0.24194955       1.82555359
H        2.11350493       0.50538656       1.25455558
H        1.34517692       0.71913356      -1.12415746
H        1.17372292      -1.07290147      -0.75124646
H       -1.25568413       1.05065757      -0.47740145
