9
Properties=species:S:1:pos:R:3 -167092.77448613817=T pbc="F F F"
C       -0.51000548      -0.36154085       1.09265606
C        0.10361853      -0.45746785      -0.28182996
C        0.56793353       0.93541717      -0.70218397
O        0.41668653       1.23526618      -1.88772199
O       -0.59057049      -1.34868287       1.80158507
H       -0.90042049       0.63333916       1.32217607
H        1.03382854      -1.10660387      -0.11185896
H       -0.49200848      -0.89794286      -1.08082898
H        1.19475755       1.78515718      -0.05601596
