9
Properties=species:S:1:pos:R:3 -167090.8533858064=T pbc="F F F"
C        0.70303518      -0.14182660       0.97099008
C       -0.53598484       0.62441241       0.55799107
C       -0.69118585       0.75772041      -0.96388495
O       -0.16917384       0.15297540      -1.93878997
O        0.65568418      -1.30876662       1.41070209
H        1.75867820       0.23390740       0.77671508
H       -1.40624386       0.42326441       1.16715608
H       -0.23605384       1.61966943       0.84727308
H       -1.59686086       1.29829042      -1.13850996
