9
Properties=species:S:1:pos:R:3 -167097.9844810974=T pbc="F F F"
C       -0.51035410      -0.63570587       0.94621872
C        0.61485891       0.22863915       0.37313471
C        0.36259491       0.75680216      -1.12763432
O        0.70097692       0.07945015      -2.06057334
O       -1.15930612      -0.39480986       1.90854573
H       -0.73058611      -1.52333388       0.30655671
H        0.98521792       1.03918016       1.00973372
H        1.49389593      -0.38421186       0.09416170
H       -0.03618710       1.70911317      -1.28043032
