9
Properties=species:S:1:pos:R:3 -167096.14214281907=T pbc="F F F"
C       -0.04426877      -0.28133105       1.42013529
C        0.79729424       0.34938897       0.38489927
C        0.01714123       0.34695997      -0.99643476
O        0.46186723       0.25141096      -2.08699377
O       -1.18096679      -0.66158305       1.31416828
H        0.43373623      -0.08893004       2.39978230
H        1.15217725       1.43020098       0.64898927
H        1.78886226      -0.15087704       0.41074227
H       -1.13238679       0.37778797      -0.82207175
