9
Properties=species:S:1:pos:R:3 -167098.54668025376=T pbc="F F F"
C        0.18690540       0.20301254       1.47225551
C        0.47087841      -0.51825947       0.11438348
C       -0.54122161      -0.29726147      -0.98783653
O       -0.59053361      -0.85151148      -2.09504455
O        0.45978441       1.40175956       1.54353151
H       -0.19217960      -0.33632647       2.35130752
H        1.40296342      -0.16720446      -0.21714652
H        0.64560841      -1.56596149       0.25306049
H       -1.16919362       0.62968855      -0.76414753
