9
Properties=species:S:1:pos:R:3 -167094.19625666284=T pbc="F F F"
C        1.20792453      -0.13773405       0.86862795
C        0.17771651       0.92882597       0.15411594
C       -1.11010051       0.36403696      -0.27300907
O       -1.41814552       0.23470896      -1.44471809
O        1.14167052      -1.32037807       0.73265595
H        2.10374754       0.39994996       1.42938496
H       -0.13308050       1.75584099       0.90527995
H        0.91317552       1.20069398      -0.59220807
H       -1.77679753       0.11994996       0.63152195
