9
Properties=species:S:1:pos:R:3 -167094.30228588378=T pbc="F F F"
C        0.01122601       0.87500848       0.89715259
C        0.37426802       0.48366347      -0.52981744
C       -0.68004400      -0.42916454      -1.17312945
O       -0.58262400      -1.65273956      -0.99377145
O        0.85640303       0.80832648       1.74431460
H       -1.18440801       1.13962749       1.11564159
H        0.56572302       1.32754149      -1.17082045
H        1.33571104      -0.16677354      -0.41257644
H       -1.55494201       0.03356747      -1.84945446
