9
Properties=species:S:1:pos:R:3 -167094.72198681146=T pbc="F F F"
C        0.28624930      -0.98606810       0.80961254
C        0.73677631       0.23221992       0.10524553
C        0.15884530       0.44272992      -1.20610249
O       -0.67040072       1.28212494      -1.49856350
O       -0.43394171      -0.99191810       1.76545856
H        0.66775331      -1.94321012       0.41588154
H        0.44541730       1.03598693       0.76919354
H        1.79149833       0.08995192       0.19720953
H        0.54971231      -0.08409008      -2.15030551
