9
Properties=species:S:1:pos:R:3 -167096.99130961797=T pbc="F F F"
C        0.59516569       0.11735034       0.84876480
C       -0.85884033      -0.00119767       0.27840379
C       -0.71343333      -0.17691667      -1.20335623
O        0.18847068      -0.88701168      -1.62320724
O        0.71144069       0.95518035       1.68506882
H        1.45252171      -0.58834068       0.52661080
H       -1.26902734      -1.03541468       0.56462380
H       -1.47626635       0.84957135       0.64019980
H       -1.35521734       0.41580434      -1.80606925
