9
Properties=species:S:1:pos:R:3 -167094.81251424484=T pbc="F F F"
C        0.45395755       0.58065219       1.01781586
C        0.01711754      -0.56787483       0.14512585
C       -0.10688346      -0.05713682      -1.31590318
O       -0.86947848      -0.49749283      -2.11081019
O        0.49186655       0.53939619       2.23246289
H        0.79674555       1.54870021       0.49972086
H        0.83337055      -1.31719984       0.21428085
H       -0.66098947      -1.09713984       0.72556086
H        0.68748155       0.72878319      -1.54899318
