9
Properties=species:S:1:pos:R:3 -167092.63984807613=T pbc="F F F"
C        0.83131704      -0.03412044       0.57081998
C       -0.48521099      -0.67556345       0.30644897
C       -1.28704200      -0.04610544      -0.76189105
O       -1.05217100       1.10086858      -1.13803305
O        1.91624706      -0.42574144       1.02109399
H        0.75099204       1.04126858       0.17461297
H       -0.43910499      -1.71672646       0.38843297
H       -0.93357999      -0.37929044       1.31323199
H       -1.88825801      -0.66095545      -1.39415506
