9
Properties=species:S:1:pos:R:3 -167096.475455684=T pbc="F F F"
C        0.41865628      -0.92900330       0.88545973
C        0.42358628      -0.43263429      -0.51072430
C       -0.83447874       0.33135372      -0.73156330
O       -0.91375174       1.28703374      -1.48371731
O        0.92299929      -0.34896929       1.82114974
H       -0.32969273      -1.75736431       1.06550073
H        1.34566030       0.14125072      -0.74282230
H        0.53322828      -1.23060030      -1.27990831
H       -1.78840376       0.22636372      -0.14937929
