9
Properties=species:S:1:pos:R:3 -167100.5553340182=T pbc="F F F"
C       -0.42919431      -0.59124435       1.02370002
C        0.04876970      -0.67410535      -0.40932500
C        0.42004770       0.63817867      -1.18219002
O       -0.41353731       1.47350568      -1.35749402
O        0.37162970      -0.86898736       1.87772304
H       -1.45791233      -0.34212635       1.28962102
H        0.91025371      -1.35445937      -0.34568000
H       -0.75425632      -1.17931236      -0.96612201
H        1.49523372       0.74937167      -1.47335502
