9
Properties=species:S:1:pos:R:3 -167091.45552747828=T pbc="F F F"
C        0.82992921      -0.86682725       0.95219221
C       -0.55701581      -0.38185724       0.36676420
C       -0.78238782       0.78781878      -0.50369082
O       -1.45735483       0.77627478      -1.54212383
O        1.94783523      -0.36943124       0.74201521
H        0.72737421      -1.55725526       1.86097723
H       -1.15827982      -1.18024726       0.09106419
H       -1.14029082       0.01965176       1.31603622
H       -0.14685881       1.74839779      -0.27700081
