9
Properties=species:S:1:pos:R:3 -167093.52297050832=T pbc="F F F"
C        0.19401077       0.14345806       1.39017338
C       -0.75767025      -0.47878695       0.34095036
C       -0.06663923      -0.62774596      -0.93448766
O       -0.38673824      -0.17111395      -1.98787868
O        0.94298978       1.07302407       1.22562438
H        0.41751878      -0.45179495       2.25211740
H       -1.13857025      -1.42344997       0.79598037
H       -1.60912926       0.14302906       0.26659936
H        1.00692379      -1.11458497      -0.70257765
