9
Properties=species:S:1:pos:R:3 -167088.19437245754=T pbc="F F F"
C       -0.37884787      -0.67469723       0.92392111
C        0.69528214       0.09579678       0.31815410
C        0.14886214       0.63047379      -1.01433193
O        0.72881915       0.18716079      -2.02693494
O       -1.19421489      -0.25038122       1.79263812
H       -0.33701687      -1.75571625       0.85390511
H        0.99402615       1.00934680       0.88705711
H        1.73734216      -0.31863922       0.18225609
H       -0.54838788       1.45428781      -0.91645792
