9
Properties=species:S:1:pos:R:3 -167094.1464425962=T pbc="F F F"
C        0.74558160       0.16230066       0.84315536
C       -0.70864243      -0.16153635       0.35849236
C       -0.98057343      -0.39874635      -1.13378867
O       -0.18074642      -0.04855235      -2.02606269
O        1.06826060       0.36971866       1.98077638
H        1.59171061       0.26482766       0.02050535
H       -1.37355344      -0.81425036       0.93989937
H       -1.14682643       0.89445267       0.52468336
H       -1.92113345      -0.70346836      -1.57434768
