9
Properties=species:S:1:pos:R:3 -167088.2911739341=T pbc="F F F"
C       -0.63695872      -0.53748004       1.14082762
C        0.03056029       0.44332198       0.13983161
C        0.05528329       0.04165197      -1.40107142
O        0.81720730       0.54807098      -2.22395443
O       -0.28532271      -0.51648904       2.35136965
H       -1.43204573      -1.34735006       0.81664462
H       -0.53128472       1.30894399      -0.23305740
H        0.94975231       0.69638298       0.57741561
H       -0.86578272      -0.53402404      -1.74944743
