9
Properties=species:S:1:pos:R:3 -167086.5512831113=T pbc="F F F"
C        0.19247791      -0.78455244       1.09276908
C        0.66786092      -0.60029444      -0.34061094
C        0.05912191       0.60381058      -1.07799196
O       -0.95929811       0.61169958      -1.59246196
O        0.06185091       0.10165558       1.88891610
H        0.17795591      -1.80891246       1.38169909
H        1.68679394      -0.05744543      -0.26434394
H        0.63221292      -1.57548645      -0.90300095
H        0.79831392       1.42004560      -1.03964896
