9
Properties=species:S:1:pos:R:3 -167094.65839897798=T pbc="F F F"
C        0.91300871       0.82683889       0.80828529
C        0.69628771      -0.28384013      -0.30584573
C       -0.71623031      -0.59132714      -0.64233274
O       -1.16957732      -0.62421214      -1.77205076
O        0.35288070       0.69939788       1.90567931
H        1.51644772       1.65954790       0.55559828
H        1.15186472      -0.06554813      -1.28521475
H        0.91485571      -1.25273915      -0.02383073
H       -1.25518532      -0.95907514       0.29834928
