9
Properties=species:S:1:pos:R:3 -167100.4858455891=T pbc="F F F"
C       -0.70366313      -0.27209870       0.80555075
C        0.56137990       0.48690331       0.31350975
C        1.03561590       0.06906131      -1.09019528
O        0.20597389      -0.06251770      -1.96349529
O       -1.03956713      -0.23510670       1.95446677
H       -1.22151214      -0.72878871      -0.00713326
H        0.20682789       1.53636133       0.21396774
H        1.42539091       0.44405431       0.98144976
H        2.18226392       0.09194531      -1.38868828
