9
Properties=species:S:1:pos:R:3 -167094.80599391452=T pbc="F F F"
C        0.76565047      -0.78652227       0.72719848
C        0.36380346       0.03310574      -0.48027554
C       -1.04132356       0.02675074      -0.95342755
O       -1.66798657       1.03972676      -0.94661455
O        1.55864248      -0.37832127       1.60948749
H        0.59087547      -1.89654229       0.73218048
H        0.57175847       1.10801276      -0.21173054
H        0.98101147      -0.20395926      -1.29617956
H       -1.45762857      -0.85221127      -1.33231556
