9
Properties=species:S:1:pos:R:3 -167098.39301336635=T pbc="F F F"
C        0.78313890       0.19939910       0.86448261
C        0.23965989      -0.92680092       0.03478059
C       -0.86003212      -0.25470491      -0.91229742
O       -0.48587512       0.33202710      -1.89334944
O        0.34286090       0.55285211       1.92101963
H        1.52295292       0.86774111       0.38678560
H        0.98553391      -1.24848992      -0.79080942
H       -0.24976911      -1.72767793       0.72113060
H       -1.92701314      -0.24147191      -0.60105642
