9
Properties=species:S:1:pos:R:3 -167100.50530268284=T pbc="F F F"
C        0.16324413      -0.07144541       0.98731457
C        0.80885714      -0.33328441      -0.37537845
C       -0.28584688      -0.43819842      -1.40751047
O       -1.24920090       0.28205460      -1.21696847
O        0.60650313       0.51213560       1.95432759
H       -0.82322789      -0.58068142       1.14022257
H        1.58504415       0.31015360      -0.73458846
H        1.36047115      -1.28321343      -0.29742045
H       -0.09332088      -1.01403143      -2.33787049
