9
Properties=species:S:1:pos:R:3 -167090.56948685105=T pbc="F F F"
C        0.99197668       0.32669846       1.07355367
C        0.64591968       0.47629447      -0.45671736
C       -0.19446334      -0.59322055      -1.08375937
O       -1.38022436      -0.72947556      -1.37664537
O        0.04959167       0.53550147       1.82882968
H        2.06374170       0.23157146       1.37839368
H        0.01112467       1.46645648      -0.47676436
H        1.47481969       0.44766846      -1.16135337
H        0.38171067      -1.56491057      -1.35719637
