9
Properties=species:S:1:pos:R:3 -167093.76054072214=T pbc="F F F"
C       -0.91892523      -0.58802781       0.97870072
C       -0.15076621      -0.72009381      -0.31775231
C        0.62579180       0.47326621      -0.74563531
O        0.83302680       0.86163022      -1.89394333
O       -0.44843722      -0.08265080       1.98132973
H       -2.01123925      -0.77016581       0.90747772
H        0.66093480      -1.61245583      -0.11625130
H       -0.70826422      -1.04497482      -1.11784432
H        1.24028981       1.00510822      -0.05191530
