9
Properties=species:S:1:pos:R:3 -167097.1916175839=T pbc="F F F"
C        1.13044022       0.08953503       0.44467010
C       -0.04503980       0.83844304      -0.08615191
C       -1.21370082      -0.09907398      -0.47942492
O       -1.30203783      -0.85632999      -1.46304093
O        1.42955022       0.08338203       1.58135312
H        1.52342022      -0.66568699      -0.29611691
H       -0.36060581       1.72446105       0.50900310
H        0.37413720       1.38552205      -0.96164192
H       -2.03301484      -0.04666998       0.31067110
