9
Properties=species:S:1:pos:R:3 -167095.29871750335=T pbc="F F F"
C        0.11758327       0.63145539       1.20582563
C       -0.96440175       0.03885638       0.37625761
C       -0.53474175      -0.76908964      -0.80297541
O       -0.01511174      -0.18490463      -1.73370542
O        1.29729029       0.28375238       1.01293763
H       -0.06361674       1.54797340       1.83802364
H       -1.39933976      -0.66782663       1.07868663
H       -1.83729677       0.64656239       0.00631361
H       -0.59884975      -1.91936366      -0.76061941
