9
Properties=species:S:1:pos:R:3 -167090.76866389957=T pbc="F F F"
C        0.69484103       0.54514943       0.81464190
C        0.55759803      -0.39485859      -0.33559512
C       -0.96245200      -0.39351359      -0.70187213
O       -1.77304101      -1.28987260      -0.63079413
O        1.48562004       1.51931945       0.81066490
H        0.21420802       0.08283242       1.68430491
H        1.31841204       0.02093042      -1.01093013
H        0.91849103      -1.44627961      -0.15694112
H       -1.34235800       0.59704043      -0.71797013
