9
Properties=species:S:1:pos:R:3 -167090.57362610547=T pbc="F F F"
C        0.72454682      -0.95993358       0.36893620
C       -0.68796621      -0.29589556       0.74800720
C       -0.99887221       0.81010945      -0.21158081
O       -0.80293921       0.71035245      -1.43131983
O        1.68021283      -0.31197456       0.58395820
H        0.96701282      -1.95944059       0.10560219
H       -1.44128022      -1.05897058       0.64126920
H       -0.55074720       0.20801444       1.69998422
H       -1.44011322       1.79495847       0.22139119
