9
Properties=species:S:1:pos:R:3 -167099.92023132247=T pbc="F F F"
C        0.37198100      -0.05624658       1.10035095
C       -0.54008302      -0.52368759      -0.06608207
C       -0.53756502       0.45699642      -1.26421309
O        0.42200300       0.67956943      -1.98176811
O        0.21120199      -0.54491559       2.18392797
H        1.25329101       0.53768243       0.89288094
H        0.08035299      -1.43145861      -0.34175508
H       -1.45889904      -0.86812860       0.36917694
H       -1.52191104       1.08864944      -1.39082010
