9
Properties=species:S:1:pos:R:3 -167096.5217832864=T pbc="F F F"
C        0.18734016       0.51898217       1.19757994
C        0.25101716       0.43544717      -0.31945908
C       -0.86748286      -0.37390284      -0.98112909
O       -0.76029286      -1.22774486      -1.81244111
O        1.17980018       0.70498418       1.92304996
H       -0.84188486       0.09556017       1.53699195
H        0.06359816       1.48493719      -0.64680909
H        1.17421818      -0.02208884      -0.71538609
H       -1.94429288      -0.17404684      -0.70373809
