9
Properties=species:S:1:pos:R:3 -167094.48750550245=T pbc="F F F"
C        0.50556986       0.20032350       1.33327329
C        0.62468186      -0.81666952       0.21144427
C        0.10371585      -0.16825651      -1.05614775
O       -0.94299516      -0.47852451      -1.62325676
O       -0.20122315       1.19716852       1.15636429
H        1.16468087      -0.03905250       2.28309331
H        1.74513788      -1.29533253       0.09939527
H       -0.06449615      -1.50262753       0.59391928
H        0.62161186       0.77373851      -1.38380275
