9
Properties=species:S:1:pos:R:3 -167096.2188963789=T pbc="F F F"
C        0.28096910      -0.40074190       1.19796340
C       -0.37544891      -0.92462391      -0.12373862
C        0.03210510      -0.24704089      -1.39268464
O        0.41525010       0.92184013      -1.42753264
O       -0.33706391       0.54309212       1.73528041
H        1.20233812      -0.74342290       1.60442441
H       -0.07759891      -1.98587592      -0.17500162
H       -1.48649493      -0.89131491      -0.18536862
H       -0.13643091      -0.90654691      -2.33638766
