9
Properties=species:S:1:pos:R:3 -167089.1510539405=T pbc="F F F"
C       -1.06626914      -0.53868043       0.90293766
C       -0.73196214      -0.09909142      -0.54678937
C        0.81972989      -0.18862243      -0.81086637
O        1.34468190       0.75508459      -1.39870738
O       -0.44284513       0.00712258       1.84170267
H       -1.65023315      -1.46875245       1.07164566
H       -1.24188115      -0.55328243      -1.41978438
H       -1.12866314       0.84675259      -0.94926237
H        1.35882190      -1.08176344      -0.31900536
