9
Properties=species:S:1:pos:R:3 -167088.8531019162=T pbc="F F F"
C        0.42186360      -0.34726757       1.00834663
C        0.36839460       0.75309244      -0.07777339
C       -0.45705541       0.21281843      -1.09054341
O       -1.69044843       0.53605944      -1.11154541
O        1.40139662      -1.11138459       1.26665463
H       -0.57780541      -0.31790257       1.38853264
H       -0.18337641       1.60936546       0.31172562
H        1.45507062       0.89571345      -0.38474940
H       -0.07381540      -0.42242858      -1.87246742
