9
Properties=species:S:1:pos:R:3 -167098.30701330263=T pbc="F F F"
C        0.48681317       0.67252079       0.91433357
C        0.31060317       0.17652478      -0.54306746
C       -0.58019585      -1.07651224      -0.61040646
O       -1.66914186      -0.93731224      -1.13096447
O        1.48448919       1.15027180       1.38284457
H       -0.50403984       0.65199679       1.35753957
H       -0.25442584       0.85351579      -1.14469247
H        1.25801719      -0.05996923      -1.10490247
H       -0.15538684      -2.11695926      -0.25806145
