9
Properties=species:S:1:pos:R:3 -167097.22436029703=T pbc="F F F"
C        0.26475263      -0.15717690       1.37152119
C        0.18157562      -0.74506991      -0.05863684
C       -0.39202339       0.24357111      -1.04586185
O       -1.10097340      -0.11196090      -1.97355487
O        1.03131564       0.73780811       1.71379020
H       -0.45537039      -0.57359591       2.25539021
H        1.25442764      -1.09088192      -0.41363784
H       -0.29345138      -1.68558493      -0.05433984
H       -0.04668538       1.26015212      -0.84414985
