9
Properties=species:S:1:pos:R:3 -167092.27694565046=T pbc="F F F"
C        0.27687824       0.63098476       1.14778349
C        0.35009524       0.23050375      -0.34540553
C       -0.79528178      -0.68328726      -0.87228454
O       -0.92610678      -1.01217727      -2.00968656
O        1.08699325       0.80431476       2.06864151
H       -0.73139178       0.93769577       1.36893150
H        0.39774824       1.33083877      -0.78760254
H        1.30104326      -0.11462325      -0.63369454
H       -1.51676679      -0.97679427      -0.05092653
