9
Properties=species:S:1:pos:R:3 -167097.94740766578=T pbc="F F F"
C        0.37417827       0.55062028       1.13981771
C        0.72979528      -0.53217274       0.10865169
C       -0.30381874      -0.21012373      -0.98108733
O       -0.15454674      -0.17571473      -2.18502435
O       -0.56429874       0.36731028       1.91025573
H        0.97594828       1.44892130       1.26168471
H        1.85268130      -0.58364874      -0.07849931
H        0.32737327      -1.49554675       0.42371570
H       -1.27470976      -0.12823073      -0.42979632
