9
Properties=species:S:1:pos:R:3 -167098.02541551657=T pbc="F F F"
C        0.62503984       0.94611234       0.98592043
C       -0.67320718       0.48612934       0.18443541
C       -0.40347818      -0.60892368      -0.82532960
O       -1.26972019      -1.42556770      -1.13537961
O        1.70671386       0.62228334       0.82042943
H        0.30613783       1.80355736       1.69232244
H       -1.51410620       0.26876533       0.89347043
H       -0.94500619       1.40078035      -0.32959859
H        0.59523384      -0.52750368      -1.36587461
