9
Properties=species:S:1:pos:R:3 -167097.30935035506=T pbc="F F F"
C        0.21463134      -0.14075551       1.23441346
C       -0.07971866      -0.88388252      -0.12561857
C       -0.26613967       0.06389049      -1.33892559
O        0.70690235       0.61207050      -1.82145460
O       -0.59762367       0.29170250       2.03374647
H        1.38059936      -0.06775551       1.24926746
H        0.73485335      -1.53266353      -0.28566357
H       -0.92748968      -1.58371353       0.09169044
H       -1.35979769       0.28005550      -1.68439359
