9
Properties=species:S:1:pos:R:3 -167087.26979246805=T pbc="F F F"
C        0.84221406      -0.09723245       0.70156845
C       -0.42854296      -0.54002446      -0.03011956
C       -0.54032796       0.19919755      -1.21065558
O       -1.16034597       1.26626657      -1.10420158
O        1.27951407      -0.83904247       1.59112847
H        1.31875607       0.79377656       0.35367044
H       -0.40036196      -1.68854548      -0.28375257
H       -1.16098897      -0.37058946       0.73220945
H       -0.14060795      -0.29910046      -2.10976860
