9
Properties=species:S:1:pos:R:3 -167097.89795427886=T pbc="F F F"
C       -1.04237049      -0.03985374       1.13995275
C       -0.58382548      -0.40766175      -0.28116927
C        0.69156654       0.30282727      -0.93021928
O        1.18315855       0.13212926      -2.02597130
O       -0.30343247       0.01257526       2.09838077
H       -2.11762850       0.12183126       1.31503076
H       -0.31148947      -1.52906277      -0.25057727
H       -1.47089049      -0.39744775      -0.97829628
H        1.06658955       1.23089128      -0.38477427
