9
Properties=species:S:1:pos:R:3 -167093.51888703095=T pbc="F F F"
C       -0.00030433      -0.26597234       1.08079540
C       -0.64733234       0.38167067      -0.17405062
C        0.07911267       0.21840267      -1.50469065
O        1.30288969       0.43080267      -1.38855864
O       -0.75881134      -0.72475835       1.92091341
H        1.13905369      -0.32298934       1.06610740
H       -1.67543936      -0.05027434      -0.17447362
H       -0.74820934       1.43301369       0.03155738
H       -0.58100534      -0.37254334      -2.25240866
