9
Properties=species:S:1:pos:R:3 -167092.49078589052=T pbc="F F F"
C        0.50229977       0.77537886       0.98392949
C        0.29761277      -0.39993116      -0.02200653
C       -0.91709125      -0.71173216      -0.98693554
O       -0.99232225      -0.33604415      -2.10038056
O        1.07014678       0.66031086       2.11222751
H        0.16577577       1.73947688       0.69355348
H        1.17640678      -0.18998915      -0.61761454
H        0.44542577      -1.29671117       0.57379848
H       -1.62751326      -1.39504317      -0.53993654
