9
Properties=species:S:1:pos:R:3 -167092.64418974932=T pbc="F F F"
C       -0.10655220      -0.10014452       1.12608672
C       -0.20287220       0.70488649      -0.13996030
C       -0.54316521      -0.17757752      -1.22966732
O        0.38207981      -0.76776853      -1.86681533
O        0.40628581       0.37706649       2.07771773
H       -0.73294921      -1.14377054       1.22382472
H       -0.89355322       1.56614551       0.02389070
H        0.87557681       1.04024150      -0.25795031
H       -1.60937023      -0.34806552      -1.43713933
