9
Properties=species:S:1:pos:R:3 -167092.7666535468=T pbc="F F F"
C        0.88844985       0.43987168       0.92495594
C        0.93256885      -0.05624332      -0.49964708
C       -0.34143117      -0.14998233      -1.27213710
O       -1.27979019      -0.80965534      -0.88290909
O       -0.12325717       0.56653369       1.67201996
H        1.90552287       0.85925969       1.12304795
H        1.55154286       0.67654969      -0.93865409
H        1.67632886      -0.88501634      -0.44133908
H       -0.48321017       0.42574068      -2.18377811
