9
Properties=species:S:1:pos:R:3 -167082.74666622974=T pbc="F F F"
C        0.17956916       0.59702566       0.78941237
C        0.52533016      -0.73588636       0.25513636
C        0.24288516      -0.68513936      -1.22114567
O       -0.70907486      -0.15622335      -1.74444967
O       -0.14692785       0.93476367       1.93297439
H        0.24224016       1.29353768      -0.13133165
H        1.51254118      -1.26445337       0.67957737
H       -0.27812885      -1.50936137       0.54501237
H        0.82362417      -1.06449536      -1.98257268
