9
Properties=species:S:1:pos:R:3 -167096.18208377264=T pbc="F F F"
C        0.20262455      -0.30202918       1.31629947
C        0.13667055      -0.85228819      -0.13158756
C       -0.27612145       0.25321883      -1.09972857
O        0.58352956       0.49005684      -2.00845659
O       -0.65607546       0.35223783       1.92616648
H        1.05116457      -0.58648218       1.87378848
H        1.09832757      -1.10693719      -0.50615156
H       -0.52986546      -1.73201920      -0.03543056
H       -1.22046847       0.78683684      -1.03808457
