9
Properties=species:S:1:pos:R:3 -167097.45773454884=T pbc="F F F"
C        1.00969072       0.22483049       1.01150293
C        0.79010672       0.17548349      -0.54497809
C       -0.71011231       0.18738749      -1.02739810
O       -1.23014932      -0.81437553      -1.36248411
O        0.19283670       0.27296149       1.88784095
H        2.13628874       0.16777449       1.13457193
H        1.37771273       1.03518850      -0.96261310
H        1.26822272      -0.70571353      -0.78852410
H       -1.29401432       1.09772351      -1.04300710
