9
Properties=species:S:1:pos:R:3 -167086.68394128853=T pbc="F F F"
C       -0.43022783      -0.47416310       1.11819237
C        0.53246319       0.60780492       0.45766536
C        0.41017219       0.63035892      -1.18806367
O       -0.57247383       0.83841692      -1.79860668
O        0.07844218      -1.55315712       1.44099738
H       -1.49472184      -0.21373510       1.53508838
H        0.18899118       1.66846994       0.48237536
H        1.54461121       0.26776591       0.63488237
H        1.50061121       0.52411892      -1.59422467
