9
Properties=species:S:1:pos:R:3 -167094.56031667284=T pbc="F F F"
C       -0.31462004      -0.54299807       0.82012710
C        0.33070897       0.75116996       0.38259209
C        0.77622698       0.70145595      -1.13941393
O        0.28284797      -0.16168706      -1.87701594
O       -1.02952805      -0.65721807       1.81117212
H       -0.15926804      -1.31571708       0.04759809
H       -0.33125404       1.58607097       0.81251810
H        1.26323999       0.65374195       0.87782110
H        1.64366699       1.24173996      -1.44671294
