9
Properties=species:S:1:pos:R:3 -167089.16091832044=T pbc="F F F"
C        1.22751966       0.00089172       0.76922798
C       -0.19539336       0.55782173       0.48464098
C       -0.59800137       0.45039473      -0.95427105
O       -1.80922339       0.30256173      -1.24205205
O        1.41027467      -1.23123630       0.97162498
H        2.02710468       0.65172674       0.80963598
H       -0.92810437       0.04864973       0.98142798
H       -0.10087836       1.70632375       0.61175298
H        0.16443264       0.31676073      -1.67820406
