9
Properties=species:S:1:pos:R:3 -167094.17736291254=T pbc="F F F"
C        0.49160318       0.68134901       0.81120452
C       -0.22208684      -0.63653901       0.38951852
C       -0.90529585      -0.25603400      -0.93429551
O       -0.54622984      -0.58319701      -2.05013552
O        1.15678819       0.77892901       1.83015654
H        0.31701017       1.38755803      -0.01855149
H        0.30174817      -1.50092902       0.11382451
H       -0.97663585      -0.90589001       1.12959753
H       -1.76200886       0.42786001      -0.90595151
