9
Properties=species:S:1:pos:R:3 -167093.87748233535=T pbc="F F F"
C       -0.09445381      -0.42598097       1.27626371
C       -0.50287582       0.17800304      -0.19091832
C        0.36773519      -0.00365496      -1.47274834
O        1.22495621       0.81085705      -1.76380534
O       -0.98433483      -0.58942997       2.10059572
H        0.97796321      -0.69725697       1.57094171
H       -1.61417784      -0.07280896      -0.30653832
H       -0.65224882       1.25691306       0.08876769
H        0.20336919      -1.00490598      -2.08553835
