9
Properties=species:S:1:pos:R:3 -167097.5234596113=T pbc="F F F"
C       -0.20726265       0.35721491       1.34984902
C       -0.28128365       0.83266491      -0.12372400
C        0.12526035      -0.35785311      -1.00322302
O       -0.51082066      -0.62730911      -2.00854203
O        0.83822637      -0.13943410       1.78768603
H       -1.14967967       0.48768791       2.11431404
H       -1.29436767       1.27610192      -0.36753401
H        0.59129136       1.58565393      -0.29374400
H        0.98217337      -1.08747212      -0.60194701
