9
Properties=species:S:1:pos:R:3 -167091.08763739295=T pbc="F F F"
C       -0.02585824      -0.37801430       1.18623864
C       -0.27188324      -0.38312430      -0.27911838
C        0.45251377       0.37044972      -1.33133240
O        0.42617477       1.63935374      -1.49853140
O       -0.54068524      -1.26510231       1.91382765
H        0.72885078       0.44239472       1.50702065
H       -0.32051324      -1.41533431      -0.48869439
H       -1.35969626      -0.02878829      -0.43648739
H        0.92587578      -0.28604830      -2.12187042
