9
Properties=species:S:1:pos:R:3 -167094.4366533726=T pbc="F F F"
C       -0.38609699      -0.61232605       0.81241100
C        0.25156103      -0.73126105      -0.50188602
C        0.28953003       0.46649697      -1.29589804
O       -0.36037499       1.45360698      -0.93115903
O        0.22746002      -0.61250705       1.83435002
H       -1.50854001      -0.49644405       0.93225800
H        1.17019004      -1.27260606      -0.20935302
H       -0.18842098      -1.54113707      -1.10708003
H        0.79074003       0.40468297      -2.21745305
