9
Properties=species:S:1:pos:R:3 -167086.98247050925=T pbc="F F F"
C        0.08408564      -0.00918187       1.22015451
C        0.60242065      -0.51855988      -0.06123551
C       -0.12140136       0.09398514      -1.29760353
O       -1.08179138      -0.53923388      -1.68321354
O        0.54965465       0.94322215       1.81589752
H       -0.76100937      -0.59654688       1.66335752
H        1.51381166      -0.11429687      -0.37714252
H        0.83485365      -1.61066189       0.02300149
H        0.12913264       1.07458415      -1.76371454
