9
Properties=species:S:1:pos:R:3 -167092.28161324828=T pbc="F F F"
C       -0.52960202      -0.55224689       0.86695008
C        0.70952800       0.09432312       0.35957507
C        0.58945600       0.70320313      -1.05392995
O       -0.30922702       1.44015014      -1.44683296
O       -0.38667502      -1.68564791       1.27326909
H       -1.49870704       0.04047612       0.85386808
H        0.56985000       1.12065114       0.94808808
H        1.49778601      -0.57987389       0.66258008
H        1.31464201       0.39447512      -1.76501297
