9
Properties=species:S:1:pos:R:3 -167088.89012082794=T pbc="F F F"
C        0.58375102      -0.58998383       1.13168786
C        0.69477402       0.53015919       0.02887284
C       -0.06086899      -0.02531882      -1.16640718
O       -0.76258200       0.61204719      -1.91901720
O       -0.31540400      -0.50414583       1.95164587
H        1.00360803      -1.51415285       0.83484085
H        0.07029801       1.39454020       0.41575185
H        1.66387304       0.59585519      -0.49683217
H       -0.12778099      -1.17492684      -1.20198818
