9
Properties=species:S:1:pos:R:3 -167086.74191363592=T pbc="F F F"
C        0.59175232       1.12538018       0.79214733
C       -0.63616070       0.56320517       0.22035332
C       -0.60828270      -0.94270786      -0.20673669
O       -0.97252870      -1.19999686      -1.33256071
O        1.59442834       0.50132917       0.62594232
H        0.33641832       2.08001820       1.35227134
H       -1.50332071       0.93004818       0.56540732
H       -0.71130770       0.88106118      -0.79681670
H       -0.22030769      -1.68379987       0.49959132
