9
Properties=species:S:1:pos:R:3 -167097.6373856168=T pbc="F F F"
C        0.59725088      -0.29344233       1.06885708
C        0.20379088       0.61588168      -0.12693894
C       -0.82526014       0.06241967      -1.03070896
O       -0.57593214      -0.44337333      -2.11531498
O        0.57104588       0.10339567       2.20257210
H        1.02749789      -1.33622635       0.75489207
H        0.00738887       1.68412970       0.30277107
H        1.11127589       0.55121068      -0.84314495
H       -1.78025016      -0.08587233      -0.54213495
