9
Properties=species:S:1:pos:R:3 -167093.95389616975=T pbc="F F F"
C        0.54440539       1.06072285       0.55800090
C        0.33525839       0.18595884      -0.60463812
C       -0.70045263      -0.84829718      -0.26344111
O       -1.57500265      -1.16556319      -1.09844013
O        1.39014141       0.81218385       1.36443792
H       -0.17133262       1.94628787       0.80805391
H        0.26077639       0.79609085      -1.54827413
H        1.28484740      -0.48286917      -0.46679312
H       -0.57424563      -1.39461919       0.67748490
