9
Properties=species:S:1:pos:R:3 -167088.26747632003=T pbc="F F F"
C        0.62496495      -0.14675067       1.16132981
C       -0.54256007       0.79252435       0.44939280
C       -1.00515308       0.19926034      -0.97134622
O       -0.87303008      -0.91351568      -1.32368223
O        1.74916797       0.10990633       0.72436481
H        0.41613294      -0.95835669       1.90062283
H       -1.39056209       0.97034935       1.06969081
H       -0.07238406       1.75634336       0.23590680
H       -1.87112610       0.92385235      -1.30756323
