9
Properties=species:S:1:pos:R:3 -167088.45358732727=T pbc="F F F"
C       -0.39167728      -0.58703419       0.87666039
C        0.12600873      -0.58089519      -0.60213264
C        0.86934174       0.74407983      -0.93540665
O        0.26839873       1.79834285      -0.93381065
O       -0.82007629      -1.41132320       1.60024340
H       -0.23354828       0.43340883       1.30301039
H        0.77648874      -1.44110820      -0.85678864
H       -0.61416728      -0.62814419      -1.41625265
H        1.63891675       0.54026483      -1.73776866
