9
Properties=species:S:1:pos:R:3 -167093.31036592892=T pbc="F F F"
C        0.70724818       0.25575617       0.85005458
C        0.75921918       0.34244917      -0.69200545
C       -0.43974084      -0.41694185      -1.29321246
O       -1.10807785      -1.15407786      -0.55439745
O        0.15573617       0.99756618       1.61685159
H        1.27614819      -0.73832285       0.98592658
H        0.58459618       1.41365819      -1.00450946
H        1.72985920       0.10382816      -0.97220046
H       -0.70130684      -0.45348285      -2.35493948
