9
Properties=species:S:1:pos:R:3 -167097.01508054306=T pbc="F F F"
C        0.85868739       0.78435321       0.96266694
C       -0.10338763       0.71634121      -0.29594008
C       -0.71317864      -0.65433981      -0.65451309
O       -1.66686166      -0.74905481      -1.39329310
O        1.63045340      -0.05215280       1.39608794
H        0.61928038       1.73670723       1.40915594
H       -0.80633564       1.61927523      -0.29241308
H        0.56278838       0.88493422      -1.09710310
H       -0.29943663      -1.60256983      -0.20942308
