9
Properties=species:S:1:pos:R:3 -167096.27350627325=T pbc="F F F"
C        0.60182119       0.26639983       0.96250691
C        0.49692718       0.38717083      -0.58173112
C       -0.33512183      -0.53444719      -1.33570313
O       -1.17546184      -1.27176920      -0.79803713
O        0.47627118       1.16621384       1.69709292
H        0.66403219      -0.82077019       1.35174791
H        0.03980018       1.36162085      -0.92303313
H        1.51825620       0.23496783      -0.85750713
H       -0.21779583      -0.51896119      -2.46971915
