9
Properties=species:S:1:pos:R:3 -167094.9372223732=T pbc="F F F"
C        1.03047602      -0.59049804       0.67684373
C        0.00901100       0.46046798       0.31698973
C       -0.57309401       0.30423898      -1.08566130
O       -1.52530202       0.96365099      -1.63296431
O        1.07246402      -1.12824905       1.72777475
H        1.92706904      -0.77227204      -0.04648528
H       -0.85979801       0.36731598       0.98021974
H        0.61445201       1.36208400       0.37825273
H       -0.04811700      -0.41911304      -1.72331931
