9
Properties=species:S:1:pos:R:3 -167098.72478777028=T pbc="F F F"
C        0.31404601       0.45709181       1.30768339
C       -0.56757201      -0.55977721       0.38601937
C       -0.24355400      -0.47084221      -1.12969065
O       -1.06031102      -0.03601920      -1.92012167
O        1.52309203       0.57665281       1.37744339
H       -0.31011400       1.03107682       2.04342840
H       -0.25951300      -1.65422923       0.64815838
H       -1.65830603      -0.40430021       0.51399138
H        0.80190902      -0.72390021      -1.30847566
