9
Properties=species:S:1:pos:R:3 -167094.31840125145=T pbc="F F F"
C       -0.00130838      -0.78241327       0.66715593
C       -0.37219939      -0.49716926      -0.82459510
C       -0.01268938       1.04947877      -0.82518610
O        1.16402664       1.40641877      -0.56318209
O       -0.79802340      -1.21342727       1.45121894
H        0.89778263      -0.37990126       1.05180293
H        0.12980062      -1.15276227      -1.54748511
H       -1.41407741      -0.55354026      -0.96142510
H       -0.82385940       1.76309478      -0.93673110
