9
Properties=species:S:1:pos:R:3 -167089.66109384378=T pbc="F F F"
C       -0.12989549      -0.62675256       1.28325524
C        0.54056152       0.19221545       0.22948623
C       -0.32338249       0.70025746      -0.99833480
O        0.13517752       1.59400648      -1.73698581
O       -0.26392149      -1.81809658       1.30603424
H       -0.39200549       0.02990345       2.12790926
H        1.22068854       1.00581347       0.44523723
H        1.14814553      -0.49699856      -0.36336178
H       -0.97283850      -0.14613255      -1.49522280
