9
Properties=species:S:1:pos:R:3 -167096.28800532507=T pbc="F F F"
C        0.40368507      -0.51827063       1.12136850
C       -0.58105794       0.37232639       0.24351248
C       -0.20234694       0.29477139      -1.24937254
O        0.31176007       1.25824940      -1.93986655
O        0.03745707      -1.39928164       1.83326751
H        1.45148909      -0.27307362       1.10259150
H       -1.60129496       0.00861638       0.50033149
H       -0.44920794       1.48467941       0.42626649
H       -0.42205694      -0.75399763      -1.71272455
