9
Properties=species:S:1:pos:R:3 -167089.71457239139=T pbc="F F F"
C        0.75415743       0.42120555       1.03268381
C        0.43119142      -0.78337147      -0.01148121
C       -0.03118359       0.02760454      -1.24008423
O       -1.06368660      -0.36037347      -1.74195324
O        0.00430141       0.64821455       1.95557182
H        1.51504644       1.11947656       0.53920680
H        1.30052144      -1.30270148      -0.16677221
H       -0.37423559      -1.28094048       0.45997480
H        0.62943142       0.87948356      -1.61650524
