9
Properties=species:S:1:pos:R:3 -167096.9509029416=T pbc="F F F"
C       -0.14835509       0.21099539       1.06071759
C       -0.74909810       0.09317139      -0.31295943
C        0.24689392      -0.23697162      -1.34104845
O        1.31731594       0.34416639      -1.40483145
O       -0.68427310      -0.41343562       1.97283961
H        0.67338692       0.84734840       1.23752959
H       -1.53502811      -0.71323762      -0.36403443
H       -1.40171711       1.06180941      -0.62460944
H       -0.03739309      -0.89664863      -2.19938147
