9
Properties=species:S:1:pos:R:3 -167084.68016927238=T pbc="F F F"
C        1.16694973      -0.08646417       0.98278390
C        0.20390771       0.71154285       0.10225189
C       -0.86530431       0.06982884      -0.77020413
O       -1.71995732       0.61273885      -1.49680314
O        1.23675073      -1.28103319       1.19472891
H        1.91587474       0.56633685       1.85084592
H       -0.25387230       1.44757486       0.77204090
H        0.67398872       1.30474086      -0.73251113
H       -0.68668631      -0.98648118      -0.84488513
