9
Properties=species:S:1:pos:R:3 -167093.2243228103=T pbc="F F F"
C       -0.43145462      -0.32239004       1.04114135
C        0.25654339       0.75353398       0.22867234
C        0.39218639       0.59988098      -1.27771169
O       -0.33818162      -0.08392603      -1.98970170
O        0.15520639      -0.92251605       1.96336037
H       -1.54892364      -0.51323904       0.84949235
H       -0.42881462       1.71694500       0.47866834
H        1.08821241       1.06726099       0.83193435
H        1.20641741       1.42576199      -1.64799870
