9
Properties=species:S:1:pos:R:3 -167086.32391343967=T pbc="F F F"
C       -0.14040965      -0.63010744       1.09369023
C        0.19878636      -0.93571445      -0.32242879
C       -0.08915865       0.03925957      -1.46596781
O       -0.20308265       1.21775059      -1.17523581
O        0.23268336       0.21665457       1.85031325
H       -0.85439866      -1.53641046       1.34245424
H        1.31389138      -1.05445645      -0.49886579
H       -0.34061465      -1.76022546      -0.79615880
H       -0.22214765      -0.23744244      -2.48964883
