9
Properties=species:S:1:pos:R:3 -167097.5101181835=T pbc="F F F"
C       -0.35754180       0.34423235       1.21808591
C       -0.54387980      -0.46885367      -0.10812111
C        0.22084521      -0.36722267      -1.40507314
O        0.68554522       0.62810935      -1.94341615
O       -0.03327179      -0.15323366       2.23890793
H       -0.49793480       1.49083537       1.07557391
H       -0.50606880      -1.52768469       0.26436189
H       -1.55135982      -0.30192367      -0.51034212
H        0.30681721      -1.34154668      -2.00545815
