9
Properties=species:S:1:pos:R:3 -167088.68248207407=T pbc="F F F"
C        0.48384984       0.53539718       1.07053367
C        0.05388384      -0.58316184       0.12994666
C       -0.11432517      -0.11919684      -1.29079837
O       -0.90913818      -0.47336984      -2.14979038
O        0.47048684       0.61511518       2.28171269
H        1.09610085       1.35444819       0.51706566
H        1.06048985      -0.99227685      -0.06606835
H       -0.80964118      -1.30905886       0.13234966
H        0.57331285       0.68526818      -1.60164837
