9
Properties=species:S:1:pos:R:3 -167094.95955884413=T pbc="F F F"
C       -0.49042194       0.22878642       1.21504884
C        0.17896707       0.70552843      -0.11509418
C        0.42274007      -0.26500259      -1.26852620
O       -0.34256194      -0.77868660      -2.08541322
O        0.22643807       0.13815042       2.19982886
H       -1.60812896       0.14035242       1.26889284
H       -0.41073894       1.64212044      -0.32971319
H        1.10778109       1.09284143       0.34042782
H        1.42900309      -0.67892660      -1.08831420
