9
Properties=species:S:1:pos:R:3 -167093.76394835292=T pbc="F F F"
C        0.97971185       0.02493765       0.98871025
C       -0.48433718      -0.16083135       0.64489325
C       -0.72721818       0.09512965      -0.85483578
O       -1.55469320       0.85654367      -1.30906879
O        1.79237386      -0.80699736       0.62892624
H        1.15573285       0.96775167       1.45598426
H       -0.66394218      -1.22580137       0.56269524
H       -1.18333519       0.53214566       1.21064826
H       -0.32009917      -0.57506136      -1.70762580
