9
Properties=species:S:1:pos:R:3 -167088.26709280573=T pbc="F F F"
C        0.13360943      -0.69042127       1.17777216
C        0.53340944      -0.02366326      -0.18942986
C       -0.33354557      -0.04539226      -1.36565288
O       -0.90509958       0.93507476      -1.83847889
O        0.58891844      -0.23935226       2.18535118
H       -0.49423558      -1.54959628       1.30860116
H        0.87270245       1.08097776      -0.01723986
H        1.47138246      -0.59289127      -0.60728387
H       -0.80243458      -0.93715127      -1.69661989
