9
Properties=species:S:1:pos:R:3 -167099.05877871191=T pbc="F F F"
C        0.34765129      -0.22432400       1.41676700
C        0.12871029      -0.77811301       0.00829697
C       -0.50848472       0.27588201      -0.92029304
O       -0.95443873      -0.09921600      -1.99899006
O        0.98965430       0.77142301       1.54207000
H       -0.20248672      -0.62414001       2.31063901
H        1.17554231      -1.05955302      -0.36503803
H       -0.62260173      -1.60858703      -0.13200603
H       -0.52686572       1.27483302      -0.57216304
