9
Properties=species:S:1:pos:R:3 -167098.6287338584=T pbc="F F F"
C        0.17901607       0.06975857       1.06387602
C       -0.32121094      -0.75677144      -0.04361000
C       -0.08128194      -0.21236143      -1.47064703
O        0.66928808       0.75101558      -1.72561003
O       -0.46083794       0.10718157       2.12989303
H        1.18508908       0.46100858       0.92019301
H        0.26270607      -1.68613446       0.24247100
H       -1.40898296      -1.08218345       0.06289200
H       -0.68616695      -0.60420644      -2.27921104
