9
Properties=species:S:1:pos:R:3 -167095.66655060774=T pbc="F F F"
C        0.18389050      -0.82398516       1.13982127
C        0.32319451       0.56906386       0.53921526
C       -0.08840050       0.60044386      -0.87600877
O        0.36994451       1.30196487      -1.76067378
O       -0.74331651      -1.60955518       1.00693327
H        0.91596252      -1.12896617       1.77938128
H       -0.51449751       1.13446987       0.96608726
H        1.35964152       0.90807387       0.75953626
H       -0.82062651      -0.14597415      -1.10410977
