9
Properties=species:S:1:pos:R:3 -167091.92097131888=T pbc="F F F"
C       -0.74282005      -0.52139149       0.97751776
C       -0.66334605      -0.06319548      -0.49267227
C        0.77630198       0.42264453      -0.77415827
O        1.44366299       0.00682452      -1.72331829
O       -0.86160005       0.15738453       1.99792878
H       -0.37021604      -1.66801451       1.02488776
H       -0.94900205      -0.83296249      -1.13349028
H       -1.41319706       0.62355253      -0.84417727
H        0.99433798       1.19952854       0.03930974
