9
Properties=species:S:1:pos:R:3 -167094.3315869989=T pbc="F F F"
C       -0.08849460       0.06824335       0.97527075
C        0.34234341       0.94803636      -0.25626027
C        0.09285341      -0.00204465      -1.38922429
O       -0.76246261      -0.86007867      -1.46203330
O        0.44628641      -0.06304865       2.09547877
H       -1.07903661      -0.55490166       0.81249574
H       -0.37223660       1.85610438      -0.33613128
H        1.45967043       1.27933137      -0.28904928
H        0.88142442      -0.00615665      -2.26043331
