9
Properties=species:S:1:pos:R:3 -167091.04925315952=T pbc="F F F"
C        0.12637202       0.48932947       1.17802090
C       -0.09897298       1.02098048      -0.22343412
C       -0.67997599      -0.07172654      -1.19320414
O       -0.51570499      -1.24217656      -1.19111314
O        1.12584804      -0.11651254       1.39446191
H       -0.64284199       0.78957347       1.98695592
H       -0.76452399       1.86061849       0.13989288
H        0.84489403       1.35943848      -0.61682813
H       -1.35081900       0.42478547      -1.89613715
