9
Properties=species:S:1:pos:R:3 -167100.80145740297=T pbc="F F F"
C        0.57419446      -0.96281721       0.82207185
C       -0.01445655      -0.85488921      -0.54642417
C       -0.29522656       0.64923781      -0.91610318
O       -1.41554558       1.13253582      -0.77474718
O        1.17379947      -0.05348520       1.36017186
H        0.44464746      -1.93578923       1.44024186
H        0.62468846      -1.24065722      -1.39489919
H       -0.93979457      -1.37983722      -0.46853217
H        0.55765346       1.34372283      -1.24213118
