9
Properties=species:S:1:pos:R:3 -167089.08925333773=T pbc="F F F"
C       -0.00612362      -0.21829501       1.21586858
C        0.72702139      -0.51536102       0.01395656
C        0.70346139       0.54582100      -0.95485846
O       -0.19173263       0.80396501      -1.66660547
O       -1.14361564      -0.62159102       1.40981158
H        0.40262838       0.29985500       2.10184159
H        1.79255541      -0.72964102       0.36932956
H        0.36132538      -1.33727003      -0.53512345
H        1.67683641       1.10916801      -1.13452346
