9
Properties=species:S:1:pos:R:3 -167090.02635418778=T pbc="F F F"
C        1.03144238       0.64160161       0.37254075
C       -0.35476765       0.65409261       0.20638075
C       -0.84999065      -0.62742741      -0.38004926
O       -1.46185066      -0.58497841      -1.40122328
O        1.64031639      -0.02134540       1.22875677
H        1.47231639       0.99061062      -0.59546326
H       -1.03220566       0.67821061       1.14424977
H       -0.68234865       1.52323263      -0.37340426
H       -0.52649965      -1.52619343       0.19384875
