9
Properties=species:S:1:pos:R:3 -167090.49276831633=T pbc="F F F"
C        0.90514227       0.76965514       0.51556728
C       -0.51445175       0.40666413       0.74178428
C       -1.30023177      -0.20034188      -0.59234974
O       -0.95834976      -0.98275289      -1.43765376
O        1.85195729       0.07627613       0.81183828
H        0.94721227       1.82321716       0.04261627
H       -0.85780676      -0.37060388       1.36805029
H       -1.08233776       1.30347315       0.94423928
H       -2.35951579       0.00956212      -0.34082274
