9
Properties=species:S:1:pos:R:3 -167092.80218951587=T pbc="F F F"
C        0.61554989       1.04566672       0.92141267
C       -0.69469613       0.59968371       0.27271966
C       -0.62964113      -0.94756231      -0.27390335
O       -0.96879914      -1.28880232      -1.39034337
O        1.66141091       0.63850171       0.52717866
H        0.62090589       1.77668173       1.86269868
H       -1.63622315       0.56226471       0.86126767
H       -1.06770214       1.34989073      -0.58966836
H       -0.46982213      -1.67653833       0.60774366
