9
Properties=species:S:1:pos:R:3 -167094.20065672783=T pbc="F F F"
C        0.45579803      -1.07293083       0.85334400
C        1.10348705       0.12735920       0.11380699
C       -0.02346597       1.12759521      -0.40037102
O       -0.63552998       1.00506921      -1.43542204
O       -0.79631199      -1.19200883       0.90015100
H        1.07945805      -1.64883184       1.61099201
H        1.80236006       0.81383521       0.69828400
H        1.55169205      -0.37557981      -0.81173503
H        0.00412603       2.01012023       0.24904699
