9
Properties=species:S:1:pos:R:3 -167096.68211807957=T pbc="F F F"
C        0.58808494      -0.80818618       0.86983327
C        0.94946495       0.38182684      -0.17757275
C       -0.46557808       0.82310185      -0.84097976
O       -0.94567709       0.11072384      -1.70030677
O       -0.02738607      -0.48341917       1.84272329
H        0.72941894      -1.85952620       0.61162527
H        1.30782195       1.21360286       0.44831126
H        1.55911696       0.07729084      -1.01409176
H       -0.91692409       1.75963287      -0.53532375
