9
Properties=species:S:1:pos:R:3 -167096.74210396849=T pbc="F F F"
C       -0.43514816      -1.15024436       0.64836695
C       -0.82607017       0.07292666      -0.21542407
C        0.41713585       0.86713867      -0.48280407
O        0.52768385       1.26020868      -1.62098909
O        0.26125985      -1.08305836       1.65087796
H       -0.68439817      -2.09504638       0.29223994
H       -1.47806918      -0.02492134      -1.11390309
H       -1.33862018       0.72464267       0.55012494
H        1.03032386       1.08638668       0.39086894
