9
Properties=species:S:1:pos:R:3 -167092.83185342632=T pbc="F F F"
C        0.41957934      -0.07414880       1.19783399
C        0.12188434       0.66708022      -0.22880004
C       -0.23553767      -0.37865380      -1.28048806
O       -1.20642669      -0.47009580      -1.92770807
O        0.94594535       0.28634121       2.19525600
H       -0.18510467      -1.08924981       1.30785499
H       -0.74810368       1.33651123       0.04581697
H        0.91790235       1.36151823      -0.59517505
H        0.50672534      -1.24382782      -1.29624606
