9
Properties=species:S:1:pos:R:3 -167093.42559695189=T pbc="F F F"
C        0.51092934      -0.03970732       1.27211042
C        0.73054234       0.76394870       0.02003740
C        0.16091033       0.18732069      -1.28256163
O       -1.03165769       0.05480869      -1.60656063
O       -0.27673067      -0.91812133       1.60213042
H        1.30734735       0.18665469       1.95196943
H        0.18022733       1.70693671       0.25254340
H        1.75802236       0.93500370      -0.06178961
H        0.82155334       0.01898968      -2.18655364
