9
Properties=species:S:1:pos:R:3 -167098.9637142325=T pbc="F F F"
C        0.44750526      -0.25796837       1.45909366
C        0.06324525      -0.79824738       0.03100564
C       -0.45804876       0.26414763      -1.00946738
O       -0.98846177      -0.07442537      -2.03737540
O        0.94577527       0.82310764       1.58433767
H        0.24851725      -0.99307439       2.35198768
H        1.07133827      -1.22060239      -0.40080837
H       -0.76421676      -1.52870740       0.16924864
H       -0.50568376       1.29127265      -0.65319237
