9
Properties=species:S:1:pos:R:3 -167086.57082567204=T pbc="F F F"
C        0.95885108       0.08099459       1.07074957
C       -0.41138894       0.47117260       0.54160156
C       -0.93978195      -0.29274141      -0.59588946
O       -1.43006296       0.34043860      -1.43052647
O        1.80628510      -0.59589042       0.47201156
H        1.36715209       0.50794960       2.10539759
H       -1.24323195       0.36153460       1.34643157
H       -0.30826794       1.50439162       0.38056456
H       -1.11528595      -1.40860843      -0.72290146
