9
Properties=species:S:1:pos:R:3 -167088.25470085006=T pbc="F F F"
C        0.69552668       0.82639775       1.09596755
C       -0.66531735       0.29084574       0.56936954
C       -0.39571334      -0.82427328      -0.60402448
O       -1.27090636      -1.26797328      -1.29638350
O        1.62452869       0.98758276       0.31437853
H        0.50946067       1.07832376       2.12982956
H       -1.31363636      -0.27417727       1.21497155
H       -1.04725535       1.28823576       0.18257453
H        0.59118167      -1.13072728      -0.57911148
