9
Properties=species:S:1:pos:R:3 -167089.9114277223=T pbc="F F F"
C       -0.13149718      -1.02533230       0.44476924
C       -0.82636420      -0.04497428      -0.47265477
C        0.20435082       0.97324674      -0.43963877
O        1.13161684       1.25046874      -1.22693579
O       -0.44827519      -1.17339930       1.64292526
H        0.62941783      -1.76604631       0.04111224
H       -1.04189720      -0.39366129      -1.49548379
H       -1.75058021       0.33189873       0.04569324
H        0.28985282       1.76033575       0.37335524
