9
Properties=species:S:1:pos:R:3 -167092.56808117303=T pbc="F F F"
C        0.67050962       0.78427791       0.74657369
C        0.43206661      -0.57165412      -0.06049532
C       -1.11497842      -0.70269012      -0.08016132
O       -1.69010643      -0.90513712      -1.13044834
O        1.69410563       1.36174992       0.55843069
H       -0.07905240       1.17426891       1.44553670
H        1.05420462      -0.58891512      -0.99098534
H        0.89488662      -1.46608213       0.59040169
H       -1.78583843      -0.53091212       0.81883169
