9
Properties=species:S:1:pos:R:3 -167096.22105272382=T pbc="F F F"
C        0.16484405      -0.21709545       1.17028267
C       -0.46132896      -0.46974846      -0.14274535
C       -0.39834496       0.40958756      -1.36556537
O        0.10759105       1.46836458      -1.45754337
O        0.53856106      -1.16798847       1.78844068
H        0.28969706       0.80497756       1.56172268
H       -0.04239195      -1.45832448      -0.43467235
H       -1.55292098      -0.73137546      -0.08008135
H       -0.67606696      -0.08122045      -2.27370739
