9
Properties=species:S:1:pos:R:3 -167094.2560088064=T pbc="F F F"
C        0.60612699       0.02007597       0.87849740
C        0.41702199       0.68058399      -0.47968962
C       -0.79591903       0.03676798      -1.11009363
O       -1.01136004      -1.12572505      -1.34359963
O        0.81001499       0.47729798       1.99945642
H        0.40864599      -1.16865005       0.81148440
H        0.40168299       1.71828700      -0.65355962
H        1.36119500       0.20456398      -0.92709063
H       -1.68162005       0.75637899      -1.17059863
