9
Properties=species:S:1:pos:R:3 -167090.8840333218=T pbc="F F F"
C        0.28129368       0.54312424       1.11827961
C        0.68393768      -0.29199277      -0.08721941
C       -0.66664934      -0.35283477      -1.03376043
O       -0.81785334      -0.28996077      -2.22563245
O        0.57605868       0.37259524       2.24471563
H       -0.51929934       1.28807125       0.83796360
H        1.26538769       0.47715524      -0.66847342
H        1.12991569      -1.28207479      -0.07359241
H       -1.59371235      -0.58365678      -0.36661042
