9
Properties=species:S:1:pos:R:3 -167093.57815590507=T pbc="F F F"
C        0.06722680      -0.62784245       1.18198972
C        0.50611881       0.25480356      -0.04428830
C       -0.63781021       0.59867057      -1.09162332
O       -0.66243821       0.41687956      -2.24345234
O        0.71878181      -0.66283945       2.17357274
H       -0.93589922      -1.09114446       1.21140872
H        0.69554381       1.22901658       0.31571271
H        1.48643182      -0.10081144      -0.44336831
H       -1.37272122       1.17994358      -0.52335731
