9
Properties=species:S:1:pos:R:3 -167093.05815328725=T pbc="F F F"
C        0.86078511       0.09561943       0.73882926
C       -0.47076191       0.42805643       0.27121925
C       -1.04457692       0.02859543      -1.08988478
O       -0.63123591      -0.84427959      -1.82437979
O        1.25038112       0.29081243       1.88214828
H        1.55604212      -0.27424158       0.03517924
H       -1.10112192       0.42995843       1.12748026
H       -0.47309991       1.57961445       0.07041224
H       -2.01444494       0.47279444      -1.19930278
