9
Properties=species:S:1:pos:R:3 -167100.2367547309=T pbc="F F F"
C       -0.09394873      -0.13405297       1.22049316
C       -0.61113574       0.52538004      -0.05546386
C        0.23549127       0.00484303      -1.29476588
O        1.25224029       0.52886004      -1.70365089
O       -0.82073975      -0.89786999       1.85049117
H        1.02914829       0.12471003       1.36488016
H       -1.67607676       0.28787504      -0.24866487
H       -0.30081174       1.55954806      -0.01360586
H       -0.30912074      -0.83280698      -1.88831989
