9
Properties=species:S:1:pos:R:3 -167092.03679253111=T pbc="F F F"
C        0.55298835       1.11084790       0.66553463
C       -0.30761966      -0.10262112       0.46332863
C       -1.03426668      -0.45847413      -0.84540439
O       -0.99548568      -1.54772015      -1.30251540
O        1.74006737       1.01864590       1.01970264
H        0.07690034       2.14438792       0.53787163
H        0.19215035      -0.88225813       0.83833864
H       -1.21075368       0.05095988       1.09943764
H       -1.48207568       0.53789189      -1.36230040
