9
Properties=species:S:1:pos:R:3 -167090.6641287452=T pbc="F F F"
C        0.33616312      -0.71379408       0.67776721
C       -0.83940790      -0.09943607       0.10247620
C       -0.49576989       0.61046694      -1.22548682
O        0.65007113       1.01494195      -1.45552183
O        0.30739512      -0.86079108       1.85441223
H        1.26009814      -0.86858708       0.10821520
H       -1.68649091      -0.79718208       0.01633420
H       -1.40273291       0.63839894       0.72884221
H       -1.47146191       0.99515095      -1.88263483
