9
Properties=species:S:1:pos:R:3 -167095.84806559634=T pbc="F F F"
C        1.22236582      -0.64173619       0.40760082
C       -0.05585620      -0.81766719      -0.35499519
C       -1.13754022       0.21091483      -0.21956419
O       -1.47394023       0.94909484      -1.13289121
O        1.47051582       0.22114983       1.29890383
H        2.00542983      -1.33253120      -0.02460519
H       -0.06303320      -1.04944920      -1.39145821
H       -0.57583721      -1.70556921       0.06408081
H       -1.65714523       0.38045683       0.70518882
