9
Properties=species:S:1:pos:R:3 -167098.70479657783=T pbc="F F F"
C       -0.19280016      -0.66248540       1.22189427
C        0.45651886       0.69134562       0.77712526
C        0.81157086       0.79898663      -0.79843076
O        0.06986985       0.41566762      -1.67218178
O       -1.05834217      -1.19624441       0.54529526
H        0.15553985      -1.22493441       2.10755029
H       -0.31729716       1.48563864       0.94730327
H        1.27750987       0.89218663       1.48502128
H        1.76873188       1.37839864      -0.95057277
