9
Properties=species:S:1:pos:R:3 -167089.644757607=T pbc="F F F"
C        0.47288872      -0.19892872       1.05294586
C       -0.51425329      -0.88310573      -0.05076316
C       -0.92975830       0.18533728      -1.18417118
O       -0.64038830       1.37961631      -1.19111618
O        1.57118674      -0.54375273       1.33245087
H       -0.05421729       0.45726029       1.70860187
H       -0.17679429      -1.84791475      -0.31923516
H       -1.46367131      -0.82159473       0.59564586
H       -1.51477031      -0.37669273      -2.06119119
