9
Properties=species:S:1:pos:R:3 -167099.52575761173=T pbc="F F F"
C       -0.39938907      -1.11188752       0.61467107
C        0.63679594      -0.34130450      -0.19038895
C        0.16840594       1.07110652      -0.58681895
O        0.04397493       1.56123253      -1.69283797
O       -0.41456607      -1.21951352       1.83036609
H       -1.20012409      -1.55967653       0.04387806
H        1.58331696      -0.15767050       0.53733407
H        0.83525895      -0.92956152      -1.11161596
H       -0.16884507       1.77300653       0.28303106
