9
Properties=species:S:1:pos:R:3 -167096.09655220603=T pbc="F F F"
C       -0.69053570      -0.59500224       1.00112174
C        0.11987831       0.59896078       0.62177474
C       -0.06656069       0.87917978      -0.98950429
O        0.78044832       0.90114478      -1.78404730
O       -0.19071169      -1.71132126       1.19471375
H       -1.78139072      -0.44644424       0.95113874
H       -0.03180469       1.51676579       1.23356375
H        1.17020333       0.31842177       0.87400174
H       -1.12930971       0.95396878      -1.24724530
