9
Properties=species:S:1:pos:R:3 -167096.29440957762=T pbc="F F F"
C        0.78604439      -0.77405386       0.73851429
C        0.38970438       0.53901117      -0.05393272
C       -0.94623764       0.38053316      -0.68661873
O       -1.13874765       0.73473317      -1.87986376
O        0.91373739      -0.86783986       1.88795331
H        0.91720139      -1.69765687       0.12826028
H        0.51741638       1.44094518       0.58328229
H        1.22179439       0.63643617      -0.74781574
H       -1.81808566       0.00044516      -0.06785772
