9
Properties=species:S:1:pos:R:3 -167095.52272824015=T pbc="F F F"
C        0.97696438       0.12801375       0.87018918
C       -0.55647464      -0.33119926       0.65131917
C       -0.91504365      -0.07410026      -0.89108186
O       -1.37634066       1.03307276      -1.26257786
O        1.81898640      -0.75657727       0.69913917
H        1.21714439       1.16813777       1.01659218
H       -0.35947264      -1.41972528       0.70500117
H       -1.30590065       0.11505775       1.31087018
H       -0.68831164      -0.95006027      -1.59666287
