9
Properties=species:S:1:pos:R:3 -167095.8723713975=T pbc="F F F"
C       -0.41800698      -0.13298128       0.93065922
C       -0.70594798      -0.53844028      -0.58155780
C        0.39959804       0.23869473      -1.23994282
O        0.60269804       1.40221575      -0.92332981
O        0.04001703      -0.99273729       1.71989724
H       -0.50294698       0.93689674       1.10968123
H       -0.53863598      -1.68491530      -0.60184680
H       -1.74609900      -0.23767128      -0.76485181
H        1.21212105      -0.36062628      -1.77798982
