9
Properties=species:S:1:pos:R:3 -167091.38630002327=T pbc="F F F"
C        0.70490446      -0.10885737       1.13814528
C       -0.16627055       0.71260064       0.18597726
C       -0.62566956      -0.00779637      -0.98450576
O       -0.24432955       0.39047263      -2.12069578
O        0.31804646      -0.98720339       1.79690529
H        1.75448248       0.22874663       1.21617928
H       -0.89970556       1.33214165       0.86091828
H        0.42710746       1.54991865      -0.18312374
H       -1.41550657      -0.73609439      -0.79894275
