9
Properties=species:S:1:pos:R:3 -167089.40931154497=T pbc="F F F"
C       -0.35689332       0.19524292       1.03121158
C        0.41987069      -0.60146609       0.00122456
C        0.20344069      -0.11641509      -1.36596046
O        0.71937670       0.99017293      -1.61282547
O       -0.99154333      -0.49685109       1.91895859
H       -0.44496932       1.34978694       0.87567157
H        1.55417471      -0.46522609       0.15528256
H        0.29500969      -1.66593411       0.08319356
H       -0.25692732      -0.82503810      -2.00148548
