9
Properties=species:S:1:pos:R:3 -167096.69957728763=T pbc="F F F"
C        0.67455485       0.52255499       0.97763995
C        0.33069584       0.04531198      -0.52655908
C       -1.17398818      -0.28858203      -0.64227008
O       -1.59206219      -1.35674805      -1.06076609
O        1.74512987       1.10126000       1.23346295
H        0.00405984       0.17021398       1.80047196
H        0.52563085       0.83870999      -1.20181909
H        0.97949585      -0.73700604      -0.94387709
H       -1.92935320       0.45746498      -0.11914307
