9
Properties=species:S:1:pos:R:3 -167095.1142439801=T pbc="F F F"
C        0.91108003      -0.58839307       0.53636134
C       -0.25812699       0.44454495       0.49810734
C       -1.13900800       0.70166796      -0.68019168
O       -1.52653001      -0.12118906      -1.48715570
O        1.98562105      -0.38136906       1.11781135
H        0.79683403      -1.52456008      -0.02597967
H       -0.91754500      -0.07267106       1.23810235
H        0.16859302       1.16765396       1.19794835
H       -1.54661701       1.76367397      -0.76662368
