9
Properties=species:S:1:pos:R:3 -167091.57979400168=T pbc="F F F"
C        0.78531995      -0.09272057       1.13139163
C        0.32278894       0.70283645      -0.02836239
C       -0.76311208       0.06331644      -0.71592640
O       -1.70489210       0.59767845      -1.33096441
O        1.38123396      -1.19885959       1.01091763
H        0.45946194       0.20675344       2.14551665
H        0.19094294       1.82501747       0.01872461
H        1.15335595       0.48147944      -0.74943940
H       -0.77488908      -0.99051258      -0.94459440
