9
Properties=species:S:1:pos:R:3 -167091.41657344796=T pbc="F F F"
C       -0.18918475       0.66826218       1.38848257
C       -0.99905376       0.27133517       0.09074355
C       -0.20634675      -0.83466185      -0.85405546
O        0.23376926      -0.67267184      -1.94198848
O        1.06278127       0.59739118       1.35399557
H       -0.69962976       0.85638818       2.35233359
H       -2.04182678      -0.28497484       0.43256156
H       -1.18888477       1.19316719      -0.47771146
H       -0.04176875      -1.81927086      -0.41910946
