9
Properties=species:S:1:pos:R:3 -167095.27970558478=T pbc="F F F"
C        0.80583523      -0.80943551       0.65437412
C       -0.58504880      -0.40271050       0.31213911
C       -0.49198180       0.70922252      -0.73610791
O       -1.33116481       0.67128352      -1.57998692
O        1.58242824      -0.20537250       1.38914813
H        1.05639423      -1.66807953      -0.01401089
H       -1.10380581      -1.35502152      -0.03449589
H       -1.07120981       0.15063851       1.14656513
H        0.35996522       1.46634053      -0.81270491
