9
Properties=species:S:1:pos:R:3 -167097.97588936854=T pbc="F F F"
C        0.69609249      -0.44472586       1.16801543
C       -0.46901354       0.32840316       0.72958342
C       -0.79920654       0.14356815      -0.68434360
O       -0.89360154       0.99445017      -1.52315962
O        1.44695150      -0.98538187       0.37877942
H        0.81815049      -0.51302386       2.29852045
H       -1.25366455      -0.33622186       1.15054143
H       -0.46340154       1.29640517       1.16876443
H       -1.07092455      -0.91548687      -0.90170460
