9
Properties=species:S:1:pos:R:3 -167090.06943927685=T pbc="F F F"
C        0.52760163       0.00720819       1.11618848
C       -0.82949239      -0.19569181       0.33933846
C       -0.69539539      -0.18227781      -1.15557556
O        0.15948263      -0.81212883      -1.80949357
O        0.77612764       1.13094621       1.52314249
H        1.46021265      -0.66242982       1.27737748
H       -1.41682040      -1.07105483       0.66861747
H       -1.63177140       0.51150320       0.71927047
H       -1.38591940       0.57671120      -1.69213557
