9
Properties=species:S:1:pos:R:3 -167096.12885349873=T pbc="F F F"
C       -0.42087091      -0.30105192       1.40260933
C        0.76665911      -0.38175192       0.39036131
C        0.27376610      -0.03506692      -1.02165572
O        0.89556611       0.74135710      -1.67293073
O       -1.49717593      -0.05386592       0.94876732
H       -0.10886290      -0.67071093       2.54082435
H        1.60557713       0.32025109       0.58829731
H        1.23939312      -1.39035294       0.49514431
H       -0.56504991      -0.62260693      -1.31518172
