9
Properties=species:S:1:pos:R:3 -167088.71269436652=T pbc="F F F"
C        0.46034487      -0.36804919       1.17600158
C        0.52205388      -0.84952520      -0.18155444
C       -0.14766214      -0.13496519      -1.27876546
O       -1.19537615       0.49510882      -1.15755446
O        0.40014387       0.76601983       1.43005859
H        0.43473187      -1.11466520       2.09543860
H        1.54244489      -0.79134920      -0.38680644
H        0.26157287      -1.86662522      -0.43856645
H        0.44309787      -0.13793019      -2.20957448
