9
Properties=species:S:1:pos:R:3 -167096.2104129802=T pbc="F F F"
C        0.59155489      -0.54732194       1.08828538
C       -0.00184812      -0.62344494      -0.29912164
C       -1.09341214       0.50925807      -0.56653565
O       -1.28015614       1.17005209      -1.59400966
O        1.76811391      -0.56065494       1.38361739
H       -0.15987312      -0.30784094       1.81360140
H        0.84152490      -0.66280395      -0.90883165
H       -0.61079113      -1.53180296      -0.50323464
H       -1.81757115       0.70734508       0.28674837
