9
Properties=species:S:1:pos:R:3 -167099.74156236683=T pbc="F F F"
C        0.80069044      -0.78173061       0.70220094
C        0.39714644       0.52801542      -0.02378607
C       -0.95358659       0.39665041      -0.73938208
O       -1.14808159       0.74094342      -1.86284410
O        0.92667444      -0.86370661       1.93376697
H        0.81825444      -1.76808762       0.11918793
H        0.46882744       1.46887543       0.57626294
H        1.14884945       0.59849442      -0.87284808
H       -1.83028560      -0.05284659      -0.22227407
