9
Properties=species:S:1:pos:R:3 -167093.18732272417=T pbc="F F F"
C        0.42395502       0.72678662       0.98967849
C        0.66626202       0.01544761      -0.27028853
C       -0.53026400      -0.72774441      -0.95075555
O       -1.31344201      -0.35224040      -1.81299056
O        0.81142603       0.36555761       2.05645351
H       -0.36197200       1.55003563       0.95432349
H        0.82615303       0.68570862      -1.17791255
H        1.38257104      -0.83065341      -0.32924454
H       -0.54665900      -1.78897243      -0.55626954
