9
Properties=species:S:1:pos:R:3 -167094.6662468608=T pbc="F F F"
C        0.80753153      -0.28443056       1.04666908
C        0.06780451       0.76124046       0.24794507
C       -0.65281050       0.25172345      -0.93448595
O       -1.89150852       0.32629645      -1.10282296
O        1.68812654      -1.03264857       0.77614408
H        0.46641652      -0.24857456       2.10868210
H       -0.64686250       1.44886747       0.76858807
H        0.69292052       1.52517347      -0.22888094
H        0.06577151      -0.18966756      -1.75174297
