9
Properties=species:S:1:pos:R:3 -167095.95397744392=T pbc="F F F"
C       -0.39606714      -0.39023004       1.20122121
C       -0.46411914       0.00168996      -0.24556682
C        0.76808288       0.42139897      -0.95126483
O        0.89824488       1.36490699      -1.70299284
O       -0.79540415      -1.41187106       1.68520421
H       -0.08975614       0.41491097       1.94545522
H       -0.92269115      -0.87336905      -0.69799983
H       -1.19545216       1.00233198      -0.29028082
H        1.67240189      -0.18976504      -0.72712183
