9
Properties=species:S:1:pos:R:3 -167092.3812718352=T pbc="F F F"
C       -0.90481933      -0.43428892       0.93523544
C       -0.93985533       0.44207409      -0.20833158
C        0.44125769       0.69613210      -0.93453059
O        1.14763971      -0.18294792      -1.36371760
O        0.16149569      -0.49998492       1.55220245
H       -1.84242535      -0.73895693       1.44169945
H       -1.44225734       0.00696809      -1.13550760
H       -1.46001134       1.42503411       0.13785142
H        0.67801070       1.76417212      -0.96325859
