9
Properties=species:S:1:pos:R:3 -167093.45982409068=T pbc="F F F"
C        0.81869442       0.84143998       1.01619100
C        0.00416640       0.74961398      -0.32881902
C       -0.60785161      -0.61681205      -0.70756803
O       -1.67712463      -0.78770105      -1.26457104
O        1.46928143      -0.11561004       1.30014301
H        0.80499942       1.93689000       1.56206401
H       -0.83484761       1.49771799      -0.29347002
H        0.75660641       0.92486698      -1.03701503
H        0.01178640      -1.62340406      -0.55566103
