9
Properties=species:S:1:pos:R:3 -167092.79973896392=T pbc="F F F"
C       -0.42132610      -0.48684950       0.89780988
C        0.62654192       0.49257752       0.32405087
C        0.75385492       0.62829352      -1.27801116
O       -0.05533509       0.00049851      -1.95509717
O       -0.82132511      -0.59405850       2.00529790
H       -1.09790511      -0.88079551       0.12263986
H        0.52146492       1.43444053       0.81131188
H        1.58674693       0.04054251       0.67042987
H        1.48343593       1.27685453      -1.73253017
