9
Properties=species:S:1:pos:R:3 -167095.88342362846=T pbc="F F F"
C        1.09419726       0.01233340       0.72737944
C       -0.05971476      -0.49674361      -0.05037858
C       -0.98957077       0.60861641      -0.64815159
O       -2.00474879       0.58939341      -1.25059960
O        1.92832328      -0.70122462       1.23001245
H        1.19729527       1.11949542       0.82075544
H        0.38063625      -1.02791962      -0.87151559
H       -0.44960476      -1.34536963       0.52220643
H       -0.45015476       1.54973442      -0.48821658
