9
Properties=species:S:1:pos:R:3 -167093.43124815405=T pbc="F F F"
C        0.03992696      -0.84636296       0.89173044
C        0.73705297       0.19574005       0.14593843
C       -0.15300804       0.91642507      -0.88966059
O        0.02074696       0.58042906      -2.06302261
O       -0.60707405      -0.78841696       1.93030246
H       -0.01764104      -1.87875098       0.35525643
H        1.28913798       0.75329706       0.89315744
H        1.39537199      -0.43813796      -0.40061658
H       -0.79095905       1.69965008      -0.50374158
