9
Properties=species:S:1:pos:R:3 -167092.74580552388=T pbc="F F F"
C       -0.23949064       0.09315648       1.26069860
C       -0.65381364       0.62683049      -0.17465442
C        0.27724537      -0.14537053      -1.15661144
O        1.24456639       0.46186148      -1.68365745
O       -0.67560164      -0.98210054       1.77274561
H        0.67412038       0.57243949       1.73292561
H       -1.73659866       0.25775848      -0.26248242
H       -0.64970864       1.73633751      -0.52784243
H        0.01761137      -1.15182354      -1.51626244
