9
Properties=species:S:1:pos:R:3 -167090.54891837304=T pbc="F F F"
C        0.61306237       0.25818551       0.84277042
C       -0.74700265       0.07660651       0.27921741
C       -0.89732766       0.06782250      -1.18558562
O       -0.08770364      -0.47031350      -1.89557963
O        1.05788438       0.14801551       1.93859344
H        1.43827838       0.44566951       0.07077041
H       -0.98542566      -0.97028251       0.65348342
H       -1.59111167       0.59521551       0.92473942
H       -1.98008268       0.25063851      -1.57440562
