9
Properties=species:S:1:pos:R:3 -167089.1546953564=T pbc="F F F"
C        0.24601081       0.54199049       1.10104566
C       -0.33420120      -0.58372953       0.20162264
C        0.04278681      -0.17785252      -1.31552538
O       -0.69636720      -0.20067652      -2.25086640
O        0.72080882       0.42810149       2.25038668
H        0.13801581       1.54504451       0.61372465
H        0.23072881      -1.40001554       0.51303565
H       -1.33927321      -1.03560554       0.49970065
H        1.12323483      -0.10418352      -1.46576039
