9
Properties=species:S:1:pos:R:3 -167095.63388760603=T pbc="F F F"
C        0.67345875       0.28257520       0.95152947
C        0.74586075      -0.39531981      -0.45444355
C       -0.57666528      -0.96826482      -0.88840756
O       -1.65539430      -0.49903382      -0.74933356
O        0.89031275       1.49210822       1.12367648
H        0.16222974      -0.33653481       1.75388749
H        0.95298475       0.58012820      -1.00528356
H        1.58030076      -1.18177683      -0.51669055
H       -0.58645528      -1.95123384      -1.51360757
