9
Properties=species:S:1:pos:R:3 -167093.07264785847=T pbc="F F F"
C        0.93687076      -0.01388951       0.38475680
C       -0.52639526       0.27019650       0.73830481
C       -1.34701628      -0.36601651      -0.41942821
O       -0.95004827      -0.48295651      -1.56545623
O        1.86706378       0.56667250       0.92562181
H        0.91778676      -0.72051052      -0.44790621
H       -0.99470427      -0.01957051       1.67327882
H       -0.89275527       1.28066352       0.55045181
H       -2.43279829      -0.56292352       0.00076980
