9
Properties=species:S:1:pos:R:3 -167093.49176664228=T pbc="F F F"
C        0.77621605       0.47930392       0.73704661
C       -0.58738598       0.41369092       0.07724460
C       -1.05404699      -0.90186110      -0.68485642
O       -0.37898497      -1.43054611      -1.56784343
O        1.16084705       1.40040794       1.45332062
H        1.54893506      -0.18172309       0.54661860
H       -1.29464999       0.91988493       0.71529361
H       -0.34328197       1.18186893      -0.72863642
H       -2.01773200      -1.33614711      -0.25687341
