9
Properties=species:S:1:pos:R:3 -167094.90685555755=T pbc="F F F"
C        0.84749816       0.56420178       1.10650924
C        0.69963516       0.24415577      -0.27941779
C       -0.54114087      -0.52739524      -0.77087779
O       -0.89644187      -0.45203524      -1.92861081
O       -0.03458086       0.17657877       1.89243425
H        1.70612517       1.06012678       1.58269425
H        0.64430715       1.26674579      -0.77059879
H        1.54466617      -0.18233724      -0.95063380
H       -1.09727188      -1.11821125       0.04336022
