9
Properties=species:S:1:pos:R:3 -167091.94498739412=T pbc="F F F"
C        1.37374518       0.15513987       0.54542634
C        0.17991816      -0.74260815       0.09388733
C       -0.77228385      -0.07692914      -0.90937069
O       -1.96203287      -0.51658014      -0.98720369
O        1.25997818       1.14783488       1.25388635
H        2.35645320      -0.15673214       0.24992133
H        0.49983717      -1.54051316      -0.52719568
H       -0.62146785      -1.01707615       0.93402034
H       -0.39645685       0.60671688      -1.67367070
