9
Properties=species:S:1:pos:R:3 -167099.20716707595=T pbc="F F F"
C        1.23744006      -0.76590347       0.36564627
C        0.31244404      -0.34613846      -0.86587875
C       -0.99897298       0.22848055      -0.28612274
O       -1.56652599       1.20084157      -0.76036375
O        1.04198006      -0.37119546       1.48430129
H        2.00680707      -1.54234748       0.29640427
H        0.90951705       0.50799356      -1.42247976
H        0.26052304      -1.21995547      -1.58092677
H       -1.41152699      -0.39236246       0.58058527
