9
Properties=species:S:1:pos:R:3 -167090.36664079514=T pbc="F F F"
C       -0.93198297      -0.38717775       0.91908123
C       -0.69395297      -0.70295476      -0.49765979
C        0.80502406      -0.14936475      -0.68606979
O        0.88912706       0.87114227      -1.33724781
O       -0.12309896       0.30637626       1.59334925
H       -1.83356499      -1.02722876       1.33284824
H       -0.90105297      -1.81499378      -0.70299379
H       -1.25188898      -0.20009475      -1.26154880
H        1.60354207      -0.88727476      -0.28169879
