9
Properties=species:S:1:pos:R:3 -167094.71710659514=T pbc="F F F"
C       -0.30575826      -0.58303092       1.25963480
C        0.49162475      -0.73299692      -0.01780223
C        0.09329374       0.45831410      -0.93500624
O       -0.09069126       0.35961809      -2.16457926
O       -0.16782326       0.44745410       1.88959281
H       -0.86031427      -1.52507594       1.50881580
H        1.54888477      -0.81885493       0.26430678
H        0.23205375      -1.63499894      -0.49816823
H       -0.14172426       1.38275911      -0.56404824
