9
Properties=species:S:1:pos:R:3 -167092.230973175=T pbc="F F F"
C        0.78793283       0.18162102       1.04344302
C       -0.19339819      -0.63348599       0.11113601
C       -0.14223319      -0.46042599      -1.36939102
O       -0.98936320       0.16981502      -1.96124103
O        0.58544682       0.69345703       2.16445804
H        1.66472284       0.25176303       0.50094201
H       -0.08375819      -1.69190401       0.35006001
H       -1.22997621      -0.50133099       0.37598801
H        0.67398182      -0.89678999      -1.89446203
