9
Properties=species:S:1:pos:R:3 -167090.41370677386=T pbc="F F F"
C        0.06531287       0.05520809       1.45096354
C       -0.65037314       0.33528610       0.08950352
C       -0.06124913      -0.04623491      -1.20411650
O        0.07192287       0.74998410      -2.16492052
O        0.56100388      -1.04465693       1.82654055
H       -0.14649813       0.85440710       2.20347456
H       -1.50548216      -0.49323892       0.21413052
H       -1.18108415       1.24202911       0.02218952
H        0.48355288      -1.02556193      -1.07432750
