9
Properties=species:S:1:pos:R:3 -167083.63183600034=T pbc="F F F"
C       -0.46243894       0.20096741       1.13837195
C        0.18717607       0.79413742      -0.06319107
C        0.41909208      -0.30123460      -1.18248509
O       -0.34513294      -0.77197760      -1.98810911
O        0.19320907       0.10817741       2.10971497
H       -1.61545196       0.11697141       1.11460995
H       -0.43801794       1.68661144      -0.30995508
H        1.26618809       0.89685443       0.02675193
H        1.48587409      -0.42724060      -1.48372710
