9
Properties=species:S:1:pos:R:3 -167092.06674947112=T pbc="F F F"
C        0.95492686      -0.21839566       0.98659900
C        0.22836285      -0.16798766      -0.34701803
C       -0.72967417       0.89243036      -0.78489403
O       -1.59825818       0.67781436      -1.61063305
O        1.17188587      -1.15730767       1.75568501
H        1.21586087       0.73936036       1.36253300
H        1.06282287       0.18999435      -1.02695404
H       -0.08411615      -1.22004668      -0.60605003
H       -0.82885217       1.87518338      -0.30139103
