9
Properties=species:S:1:pos:R:3 -167091.53071222367=T pbc="F F F"
C        0.41835422       0.18388378       1.36189611
C        0.60287222       0.77558579      -0.04472292
C       -0.16850879      -0.15565723      -1.02322493
O       -0.95182481       0.31278778      -1.73880394
O        0.18609821      -1.03553324       1.46287611
H        0.16402821       0.82669679       2.27845113
H        0.17538221       1.68643580      -0.28430892
H        1.64083424       0.62403079      -0.27473292
H        0.01922921      -1.23752425      -0.84022593
