9
Properties=species:S:1:pos:R:3 -167091.2407664357=T pbc="F F F"
C       -0.60436049      -0.40974557       1.24351822
C        0.48811552       0.18923644       0.31780620
C        0.38041452       0.24953745      -1.28587683
O        1.36770454       0.02615344      -2.00903784
O       -1.63508051      -0.04723156       1.74139122
H       -0.30718849      -1.46161558       1.50408622
H        0.67143353       1.22041446       0.64690021
H        1.27922454      -0.53951057       0.56127620
H       -0.54544049       0.76960145      -1.74422384
