9
Properties=species:S:1:pos:R:3 -167090.468531438=T pbc="F F F"
C        1.03917113       0.01124680       1.04369771
C       -0.08501289       0.80436881       0.48724070
C       -0.57782990       0.14016880      -0.81577932
O       -1.67725792       0.24648880      -1.20077633
O        1.30538314      -1.12557622       0.54771970
H        1.64153114       0.40925680       1.76382572
H       -0.83235890       0.83538581       1.28768271
H        0.42883812       1.67597382       0.17469270
H        0.18303512      -0.34922221      -1.37699533
