9
Properties=species:S:1:pos:R:3 -167090.9606307332=T pbc="F F F"
C        0.72100264      -0.09505982       0.84924614
C        0.48079764      -0.32056682      -0.62683388
C       -0.88313339       0.06752319      -0.98309289
O       -1.51850540       1.13889320      -0.96610389
O        1.23402165      -0.82398483       1.67631416
H        0.38801463       0.86049220       1.28232915
H        1.07979865       0.52828419      -1.05069589
H        0.59151564      -1.42463184      -0.89486789
H       -1.33867740      -0.81716083      -1.55102390
