9
Properties=species:S:1:pos:R:3 -167097.01588271366=T pbc="F F F"
C        0.07159119       0.05271842       1.29025853
C        0.60067219      -0.64768659       0.03189151
C       -0.06245482      -0.08137858      -1.28563552
O       -1.09968684      -0.48147359      -1.81620953
O        0.52899019       1.09160644       1.80316154
H       -0.98302483      -0.35947058       1.56920553
H        1.56908921      -0.24177858      -0.07220950
H        0.64019120      -1.72960161       0.06849751
H        0.57022819       0.70074443      -1.79318453
