9
Properties=species:S:1:pos:R:3 -167096.1051127297=T pbc="F F F"
C        0.23193619      -0.08322394       1.34744428
C        0.30354719      -0.73562295      -0.04661874
C       -0.33541282       0.12582306      -1.11387776
O       -1.21725984      -0.08957494      -1.91783878
O        1.03193720       0.71965607       1.77098329
H       -0.82074483      -0.04104994       1.84775729
H        1.31455221      -1.04519096      -0.41949575
H       -0.20084282      -1.70975797      -0.00531374
H        0.26603419       1.04787008      -1.31819977
