9
Properties=species:S:1:pos:R:3 -167096.49285507228=T pbc="F F F"
C        0.74333078      -0.63234639       0.32754197
C       -0.25461623       0.43977063       0.67181598
C       -1.20781325       0.63638063      -0.41082304
O       -1.03929525       0.40338563      -1.63278606
O        1.68345880      -0.81670839       1.07982898
H        0.58964778      -1.23957740      -0.64311905
H       -0.52782324       0.27646363       1.72899599
H        0.44499878       1.29224665       0.75394398
H       -2.16798127       0.94629064      -0.07157504
