9
Properties=species:S:1:pos:R:3 -167094.07421067782=T pbc="F F F"
C       -0.10881402       0.64209509       1.10020973
C        0.64033799      -0.22341492      -0.01342429
C       -0.26051503      -0.66380593      -1.09486531
O       -0.41427303      -0.40087393      -2.27417633
O        0.16633698       0.62929109       2.25767675
H       -0.81472204       1.42897411       0.65507972
H        1.53772101       0.39974309      -0.20904029
H        0.96060100      -1.24684394       0.46976372
H       -0.97553204      -1.28834894      -0.55773730
