9
Properties=species:S:1:pos:R:3 -167087.6202850578=T pbc="F F F"
C        1.07136007      -0.44512691       0.26014739
C       -0.29604196       0.10675310       0.69084340
C       -1.35464997       0.47305810      -0.41623062
O       -1.21511597       0.93555511      -1.51713264
O        1.78488608      -1.06287292       1.02316340
H        1.22918207      -0.35545791      -0.77595363
H       -0.85471797      -0.56923092       1.46244541
H       -0.21798195       1.23040712       1.02659140
H       -2.30114199       0.11124510      -0.24073062
