9
Properties=species:S:1:pos:R:3 -167091.42998867197=T pbc="F F F"
C       -0.18407352       0.34910325       1.11992790
C       -0.00335251      -0.83933877       0.22511188
C        0.13468749      -0.44892676      -1.18952014
O       -0.66709253       0.15494525      -1.95139316
O        0.70357050       0.72094326       1.82351991
H       -1.18956954       0.82962926       0.94097789
H        0.87286750      -1.47313778       0.34853088
H       -0.81706053      -1.44352778       0.33302188
H        1.18277951      -0.63150576      -1.44483515
