9
Properties=species:S:1:pos:R:3 -167095.35996855333=T pbc="F F F"
C        1.21562713       0.62968064       0.37708064
C        0.03402511       0.38979564      -0.65001038
C       -0.78263690      -0.75281338      -0.22973837
O       -1.46857791      -1.34568039      -0.99490838
O        1.02000113       1.09132365       1.44495866
H        2.28401515       0.42957464       0.06371764
H       -0.51217090       1.34071466      -0.49141437
H        0.54007712       0.22465964      -1.56710039
H       -0.75335390      -1.13323239       0.83735565
