9
Properties=species:S:1:pos:R:3 -167096.5467151492=T pbc="F F F"
C        1.06527396      -0.31038284       0.59958253
C        0.23628295      -0.61433784      -0.57563349
C       -0.91607707       0.29198017      -0.52967149
O       -1.23571708       1.16343419      -1.34128650
O        0.87554696      -0.57752284       1.79314155
H        2.10319898       0.18035517       0.31816953
H        0.78724696      -0.50903084      -1.49180551
H       -0.14497606      -1.67435886      -0.31961849
H       -1.61915108       0.23812917       0.34353753
