9
Properties=species:S:1:pos:R:3 -167095.9974144852=T pbc="F F F"
C       -0.12955332      -0.16509659       1.53150671
C        0.84920169      -0.10376959       0.35820969
C        0.11330068       0.49180942      -1.01520534
O        0.50254469       0.37606342      -2.12878036
O       -1.26869134      -0.56531260       1.32059770
H        0.18832168       0.07636142       2.52502473
H        1.79994871       0.48088042       0.68259369
H        1.18185270      -1.17139961       0.03354368
H       -0.92860134       0.96313243      -0.82737033
