9
Properties=species:S:1:pos:R:3 -167088.90751197468=T pbc="F F F"
C       -0.16860047       0.30394642       1.19838642
C       -0.24135847      -0.79475260       0.17460240
C        0.14536254      -0.22846259      -1.08954662
O       -0.59240248      -0.06885459      -2.01799864
O        0.85285755       0.72182842       1.75446543
H       -1.14854449       0.66601042       1.24584042
H        0.38867254      -1.60873762       0.49639041
H       -1.34856949      -1.07780761      -0.03989160
H        1.12533455       0.22157641      -0.89477362
