9
Properties=species:S:1:pos:R:3 -167093.16871368294=T pbc="F F F"
C        0.99407913       0.51400256       0.76407004
C        0.35744811       0.38861056      -0.59039598
C       -0.91278291      -0.44904946      -0.79927599
O       -1.04777991      -1.63333348      -1.12014299
O        0.61836312       1.20921557       1.70535606
H        2.02856514       0.07665955       0.94984104
H        0.33048611       1.34970657      -1.03830199
H        1.08696413      -0.17449145      -1.10891999
H       -1.85491292       0.07867955      -0.64143999
