9
Properties=species:S:1:pos:R:3 -167097.05567248515=T pbc="F F F"
C        0.60342104      -0.28310499       0.91005263
C       -0.29697398       0.67953903       0.25525562
C       -0.62801699       0.05573001      -1.07529141
O       -0.14575898       0.43475802      -2.09546642
O        0.43417603      -0.83970900       2.00420465
H        1.57807505      -0.61278700       0.37196662
H       -1.16483999       0.81642903       1.02284763
H        0.33490503       1.58514604       0.00726661
H       -1.49665000      -0.74576200      -1.02550540
