9
Properties=species:S:1:pos:R:3 -167094.67557679416=T pbc="F F F"
C        0.96284296      -0.69061728       0.67370936
C        0.18202695       0.59413974       0.22292035
C       -0.40975406       0.61055574      -1.15436868
O       -1.65163209       0.65491374      -1.51028468
O        0.96323696      -1.15104329       1.76730137
H        1.42861697      -1.20605529      -0.16831566
H       -0.49231807       0.84130074       1.04973536
H        0.86726996       1.41835675       0.08203535
H        0.36886295       0.69929274      -1.97364269
