9
Properties=species:S:1:pos:R:3 -167093.82142761463=T pbc="F F F"
C        0.51076075      -0.61378877       1.01787737
C       -0.33318826      -0.93913177      -0.17720265
C       -1.18261228       0.25433525      -0.65393566
O       -0.62000727       1.24952127      -1.06661867
O        1.56180577      -0.03277876       0.92586937
H        0.12097174      -1.00593577       1.95294539
H        0.24094175      -1.24231478      -1.13861867
H       -1.05674428      -1.61633878       0.10674636
H       -2.28535830       0.01603525      -0.91074966
