9
Properties=species:S:1:pos:R:3 -167096.80793864868=T pbc="F F F"
C       -0.11130414      -0.31192600       1.45806897
C        0.58087687       0.43258801       0.26928095
C        0.46196887      -0.24069000      -1.09477508
O        0.41144287       0.35373501      -2.15869009
O       -1.30311116      -0.24285700       1.57979797
H        0.55791787      -0.86665001       2.06539898
H        0.20804687       1.44491503       0.26028995
H        1.60196189       0.48922102       0.43217595
H        0.69178988      -1.39804802      -1.10238708
