9
Properties=species:S:1:pos:R:3 -167085.11804017032=T pbc="F F F"
C        0.44519079       0.71018750       0.99295254
C        0.42024079       0.00809449      -0.32082748
C       -0.59160823      -1.05400353      -0.92042149
O       -1.78622125      -0.96775853      -1.07629250
O        1.51707981       1.30815651       1.32879954
H       -0.49950123       0.51239850       1.65896655
H        0.45104879       0.71640850      -1.18503550
H        1.29188181      -0.61350052      -0.35188448
H       -0.23232722      -2.02029055      -1.17309350
