9
Properties=species:S:1:pos:R:3 -167093.07769276525=T pbc="F F F"
C        0.29574352       0.59435435       0.92394510
C        0.73078353      -0.11030167      -0.26479692
C       -0.37160849      -0.75278868      -1.12593894
O       -1.39715051      -0.24289567      -1.57606795
O        0.75847253       0.47872434       2.01460312
H       -0.38536749       1.50002836       0.71288509
H        1.34566554       0.47594734      -0.98173694
H        1.53159654      -0.69315968       0.18098308
H       -0.15361449      -1.82579470      -1.31400494
