9
Properties=species:S:1:pos:R:3 -167095.6410652154=T pbc="F F F"
C        0.66969316      -0.00779688       1.06310235
C        0.61267516       0.47392113      -0.40814468
C       -0.78899186       0.01954912      -1.01259769
O       -0.72745186      -0.95534989      -1.79160070
O        0.24496216       0.52200013       2.09408637
H        1.25722717      -1.00582589       1.12375835
H        0.74231117       1.59955815      -0.21398667
H        1.46640018       0.05763912      -0.91687568
H       -1.68302588       0.44337413      -0.53520468
