9
Properties=species:S:1:pos:R:3 -167091.8896703064=T pbc="F F F"
C        1.13175137      -0.15226790       0.74478509
C       -0.50375566      -0.21242290       0.37447909
C       -0.73686166       0.46786111      -0.97393393
O       -1.81818468       0.89710911      -1.24050094
O        1.91318839      -1.02026892       1.10276510
H        1.41578838       0.97908712       0.60179909
H       -0.83315066      -1.31347892       0.36970909
H       -1.02726067       0.47116411       1.04146210
H        0.23309336       0.58943211      -1.55742495
