9
Properties=species:S:1:pos:R:3 -167091.81015047274=T pbc="F F F"
C        0.13854310      -0.80415989       0.58476447
C       -0.80011791       0.28377813       0.15019947
C        0.08336610       1.23524814      -0.60839855
O        0.68510711       0.88474214      -1.57990656
O       -0.11983790      -1.53689990       1.49170749
H        0.85951012      -0.96681089      -0.25008854
H       -1.44256892      -0.35865788      -0.41774854
H       -1.53906793       0.79807914       0.86241048
H        0.03552610       2.36581516      -0.30178254
