9
Properties=species:S:1:pos:R:3 -167093.30944929397=T pbc="F F F"
C        0.81105204      -0.55880427       0.51226208
C        0.35561904       0.53122575      -0.52282094
C       -1.08206099       0.67087175      -0.47223993
O       -1.70221500      -0.22800326      -0.99524394
O        1.61506606      -0.36695626       1.44224910
H        0.15335403      -1.44190028       0.49307608
H        0.95497705       1.56898377      -0.48158293
H        0.70231504       0.11987775      -1.49300795
H       -1.43496700       1.53589577       0.13582108
