9
Properties=species:S:1:pos:R:3 -167092.70040088904=T pbc="F F F"
C        0.32284715      -1.06865689       0.99383813
C        0.73306716      -0.38317588      -0.26557490
C       -0.30240486       0.81174514      -0.76381490
O       -0.32193286       1.21298315      -1.88142592
O       -0.37349486      -0.62469289       1.89126714
H        0.57190716      -2.20363891       1.15501713
H        1.48093917       0.29024713       0.10649711
H        0.95096616      -0.93710489      -1.14993291
H       -0.93877787       1.13531714       0.15553911
