9
Properties=species:S:1:pos:R:3 -167086.0496049953=T pbc="F F F"
C       -0.34804897      -0.03014128       1.25365925
C       -0.12830997      -0.64336930      -0.21103378
C        0.82589905      -0.10874929      -1.31996880
O        1.05454405       1.08967573      -1.59033780
O       -1.33074599      -0.34086729       1.85875626
H        0.22062504       0.92378073       1.38507725
H       -0.09037197      -1.71123331       0.00852922
H       -1.15836599      -0.71470430      -0.52387578
H        1.24972405      -1.06774230      -1.82744681
