9
Properties=species:S:1:pos:R:3 -167097.80461396754=T pbc="F F F"
C        0.02085291       0.30918043       1.17124321
C        0.15780991       0.89232444      -0.19020982
C       -0.07200309      -0.17266058      -1.26650283
O       -1.08831611      -0.79952159      -1.57550784
O        0.98207493      -0.15323558       1.84183322
H       -0.99644711       0.22686843       1.46970921
H       -0.68966110       1.64381646      -0.27689982
H        1.20048993       1.34064545      -0.26577682
H        0.90176392      -0.34065558      -1.75477384
