9
Properties=species:S:1:pos:R:3 -167094.3686224249=T pbc="F F F"
C        0.80670014       0.86507785       0.12720401
C       -0.14531387      -0.30404217       0.53137901
C       -0.69529088      -1.23216619      -0.43394700
O       -1.40476790      -0.76651618      -1.30331902
O        1.44124215       1.37496786       1.04853302
H        0.76013514       1.36498386      -0.84287301
H        0.56909014      -0.83279218       1.27217803
H       -0.89331789       0.11256284       1.18006403
H       -0.61108388      -2.31028821      -0.24043300
