9
Properties=species:S:1:pos:R:3 -167090.39837735982=T pbc="F F F"
C        0.49001025       1.17331417       0.52055382
C       -0.49277777      -0.00581785       0.66596283
C       -0.45212277      -0.90590386      -0.55983919
O       -1.29167178      -1.09017187      -1.29618821
O        1.67156127       0.84057817       0.67869783
H        0.21157024       2.26868319       0.54277282
H       -0.01225876      -0.49802886       1.55516984
H       -1.45830279       0.31355916       0.97523583
H        0.64617025      -1.23771687      -0.73489920
