9
Properties=species:S:1:pos:R:3 -167095.66606836874=T pbc="F F F"
C        0.45901531      -0.15139775       1.07470738
C        0.66282431       0.61168427      -0.24411564
C       -0.58340571       0.61641027      -1.15833665
O       -1.65767273       0.11801326      -0.92868765
O        1.12486932      -1.11278876       1.27159239
H       -0.18013470       0.48175826       1.75527140
H        1.17030932       1.55387928      -0.26732964
H        1.38764533       0.04309126      -0.82759165
H       -0.33288370       0.88903627      -2.20009467
