9
Properties=species:S:1:pos:R:3 -167093.22791116784=T pbc="F F F"
C       -0.11003477       0.32364630       1.03700425
C        0.29185924      -0.77338072       0.15342324
C        0.10863423      -0.42166471      -1.37314379
O       -0.79594378       0.16373930      -1.85026780
O        0.51571924       0.67008030       2.03092027
H       -1.01840779       0.85996531       0.71344725
H        1.33455325      -1.19043973       0.32930924
H       -0.48263878      -1.58572674       0.19506824
H        1.15541825      -0.94152072      -1.92933880
