9
Properties=species:S:1:pos:R:3 -167088.61093689065=T pbc="F F F"
C        0.21969693       0.02550671       1.01723554
C        0.56270494      -0.53790130      -0.19936248
C       -0.29338808       0.11638771      -1.32177050
O       -1.48808710      -0.07744929      -1.33500050
O        1.03432095       0.47017572       1.77890556
H       -0.87176609       0.04909571       1.23478755
H        1.65602396      -0.57389830      -0.15772048
H        0.23166893      -1.64084632      -0.17043548
H        0.36306793       0.64798172      -1.95190651
