9
Properties=species:S:1:pos:R:3 -167072.40403623058=T pbc="F F F"
C        1.16249936       0.06270118       0.74258019
C        0.18507935      -0.95284284       0.32418218
C       -1.20134968      -0.58641983      -0.26091683
O       -1.45020568       0.11048718      -1.20151785
O        1.30249137       1.29888720       0.45969018
H        1.91934738      -0.28301483       1.48806620
H        0.80516136      -1.83901186      -0.52094984
H        0.05255334      -1.74020485       1.03388319
H       -2.17385269      -0.92439784       0.17727918
