9
Properties=species:S:1:pos:R:3 -167097.68918206455=T pbc="F F F"
C        0.11911466      -0.90915678       0.53683178
C       -0.58056735       0.51640124       0.32471577
C       -0.28575134       1.04555825      -0.98576725
O        0.87443168       1.02048425      -1.37309826
O       -0.18697334      -1.63142979       1.46890179
H        0.92820168      -1.11154778      -0.18410524
H       -1.74404637       0.51702824       0.59501778
H       -0.05726734       1.02548625       1.17505579
H       -1.14052036       1.49237226      -1.62737726
