9
Properties=species:S:1:pos:R:3 -167096.4747583617=T pbc="F F F"
C       -0.09100104      -1.10499976       0.62154508
C       -0.79542805       0.22885926       0.01318607
C        0.23626296       1.16151428      -0.62427394
O        0.59049197       1.13211328      -1.81472396
O        0.00327596      -1.38417376       1.79963710
H        0.28967296      -1.76847577      -0.16949793
H       -1.49651007      -0.16930574      -0.60840094
H       -1.29305106       0.82241027       0.74220908
H        0.81777697       1.71785729       0.15061707
