9
Properties=species:S:1:pos:R:3 -167094.2414079978=T pbc="F F F"
C       -0.33211015      -0.90075104       0.59474622
C       -0.58951816       0.61990498       0.25846121
C        0.27946286       1.16405299      -0.89355281
O        0.80353287       0.42368498      -1.68884982
O       -0.21147515      -1.25284005       1.74745324
H       -0.23749715      -1.39476105      -0.35487080
H       -1.48221317       0.46632598      -0.29568880
H       -0.56342916       1.29158700       1.16797723
H        0.53290786       2.27994701      -0.96711081
