9
Properties=species:S:1:pos:R:3 -167092.33216974197=T pbc="F F F"
C       -0.14451710       0.45416601       1.37530792
C       -0.60087511      -0.49324501       0.31521990
C       -0.16601310       0.01097700      -1.08188412
O       -0.09853110      -0.89053002      -2.01575014
O        0.93501191       0.94658302       1.44330392
H       -0.79050912       0.46169101       2.32270894
H        0.09566890      -1.35596302       0.53276191
H       -1.68840813      -0.72084001       0.28779790
H       -0.04036210       1.06011602      -1.30514813
