9
Properties=species:S:1:pos:R:3 -167089.00247205616=T pbc="F F F"
C       -0.29084251      -0.55789506       0.80100951
C       -0.13469751       0.85514997       0.21422250
C        0.10696650       0.59140396      -1.27037852
O        1.15158651       0.01164395      -1.58750253
O       -0.83827252      -0.81433306       1.81249953
H        0.05190449      -1.29869907       0.20465050
H       -1.08526453       1.31446997       0.43248451
H        0.49799050       1.37594197       0.86253951
H       -0.64395052       0.76643696      -2.03255454
