9
Properties=species:S:1:pos:R:3 -167089.85765719204=T pbc="F F F"
C       -0.27885631      -0.38078408       1.22355510
C       -0.92891432       0.08499693      -0.00718792
C        0.04512470       0.34426893      -1.21530694
O        0.74250171       1.36073095      -1.32861695
O        0.32148871      -1.40384510       1.34616710
H       -0.31593331       0.41431893       1.99149011
H       -1.50849833      -0.77608809      -0.47774493
H       -1.43746933       0.91585994       0.27022808
H        0.21902670      -0.44710208      -2.07513096
