9
Properties=species:S:1:pos:R:3 -167097.85549740132=T pbc="F F F"
C       -0.94964039      -0.88820753       0.67012461
C       -0.72211438       0.65575150       0.26276761
C        0.72395764       0.76546350      -0.34018040
O        0.94242864       1.19576251      -1.47495042
O       -0.06469237      -1.70175454       0.92227062
H       -1.99660541      -1.12458053       0.67801762
H       -1.49976240       1.03450851      -0.42120640
H       -0.66966838       1.25961151       1.21250062
H        1.52098265       0.51449250       0.24479961
