9
Properties=species:S:1:pos:R:3 -167092.75452755913=T pbc="F F F"
C       -0.13606618      -0.80724425       1.15137823
C        0.72434583      -0.65072225      -0.03532979
C        0.07600882       0.09681476      -1.15163781
O        0.26781283       1.25565578      -1.49298882
O       -0.89479319       0.05906776       1.53588123
H        0.05059382      -1.84851927       1.59031024
H        1.77376085      -0.54220425       0.19261921
H        0.77659384      -1.71290127      -0.27320780
H       -0.55988419      -0.55499125      -1.76669882
