9
Properties=species:S:1:pos:R:3 -167089.15808601023=T pbc="F F F"
C       -0.59268240      -1.00571193       0.83140438
C       -0.80032140      -0.27391492      -0.42500764
C        0.14413461       0.89514410      -0.52039064
O        0.72673762       1.43758711      -1.40748266
O        0.43997362      -1.06927693       1.53597340
H       -1.44016141      -1.75486194       0.73608638
H       -0.63454940      -1.00712993      -1.20762265
H       -1.83285542       0.07589309      -0.69339964
H        0.26108362       1.41871911       0.48300038
