9
Properties=species:S:1:pos:R:3 -167098.7725927583=T pbc="F F F"
C       -0.56347456      -0.77879957       0.68326085
C        0.71878447      -0.38799856      -0.12596817
C        0.60935546       1.06416047      -0.76792318
O       -0.24562855       1.44553947      -1.53968219
O       -0.47928956      -1.34907658       1.72508587
H       -1.57472857      -0.46848356       0.34694384
H        1.66998148      -0.37269456       0.55935785
H        0.92307647      -1.23666357      -0.86415218
H        1.38190748       1.76899448      -0.47669917
