9
Properties=species:S:1:pos:R:3 -167093.07319688765=T pbc="F F F"
C        0.89547004       0.70403401       1.01706569
C        0.05529502       0.98585901      -0.23121533
C       -0.16226798      -0.38738101      -1.08430534
O       -1.26120200      -0.90897002      -1.27052235
O        0.55544903      -0.28549801       1.56461770
H        1.71681205       1.36964302       1.37116170
H       -1.04074100       1.18321802       0.07775768
H        0.31832003       1.76156703      -1.02796134
H        0.81792104      -0.86614102      -1.53481235
