9
Properties=species:S:1:pos:R:3 -167098.4329064608=T pbc="F F F"
C       -0.19558133      -0.84159496       0.87445240
C        0.64526269       0.00799105      -0.01908462
C       -0.21239333       0.96663407      -0.86662863
O       -0.28396733       0.92200807      -2.09160266
O        0.06680968      -1.04444296       2.08148942
H       -1.20633535      -1.29658397       0.45113039
H        1.27092170       0.58738906       0.65874339
H        1.47115070      -0.52675295      -0.54852663
H       -0.91463534       1.59511108      -0.26676162
