9
Properties=species:S:1:pos:R:3 -167101.50197592433=T pbc="F F F"
C        0.69573152      -0.17770621       0.76260146
C       -0.34267450       0.73923081       0.25047045
C       -1.21610751       0.16227980      -0.78853757
O       -0.96620651      -0.88264822      -1.35749858
O        1.78751454       0.20612880       1.14004547
H        0.39865751      -1.24995723       0.95080846
H       -0.93706551       1.12056481       1.11857746
H        0.04599051       1.65171782      -0.22192156
H       -2.26614253       0.59631381      -1.06981757
