9
Properties=species:S:1:pos:R:3 -167086.5890333179=T pbc="F F F"
C        0.85154160       0.51160877       1.19287753
C        0.33460359      -0.62512925       0.18073351
C       -0.91543243      -0.27569925      -0.62352351
O       -1.49313344      -1.13049626      -1.29539052
O        1.20633761       1.50600478       0.59580652
H        1.25146261       0.39528776       2.20289854
H        1.24196861      -0.92919126      -0.32741150
H        0.04302759      -1.64705427       0.82597652
H       -1.20813143       0.85573777      -0.52972150
