9
Properties=species:S:1:pos:R:3 -167087.92243648155=T pbc="F F F"
C       -0.06975568      -0.19103258       1.21016972
C       -0.69616669       0.33412943      -0.19300431
C        0.22550232      -0.02221458      -1.45371833
O        1.30185234       0.57832143      -1.57072433
O       -0.80819970      -0.70659359       1.94675673
H        0.98383334      -0.14752658       1.37688672
H       -1.86188471       0.16418943      -0.10287531
H       -0.45636669       1.45860445      -0.00410330
H       -0.06551868      -0.87881959      -2.03985434
