9
Properties=species:S:1:pos:R:3 -167095.1601372622=T pbc="F F F"
C       -0.24176102      -0.69331658       1.15938541
C        0.57582000       0.14795444       0.07994239
C       -0.29711702       0.84182345      -0.91906563
O        0.15193799       1.56142046      -1.76117664
O       -0.18141702      -1.87132260       1.46075841
H       -0.94171403      -0.02714057       1.64037442
H        0.91670300       1.12384045       0.59424040
H        1.42223301      -0.42592457      -0.34254562
H       -1.36923004       0.71768245      -0.93752063
