9
Properties=species:S:1:pos:R:3 -167085.13970120196=T pbc="F F F"
C       -0.55182285      -0.85832372       0.83359174
C       -0.70038485       0.44487031       0.06414872
C        0.55727317       0.74472331      -0.83841929
O        0.58564017       0.60039131      -2.02108831
O        0.04076916      -0.91818372       1.93139476
H       -1.04898386      -1.81180873       0.66895873
H       -1.44530986       0.88044931      -0.65738229
H       -0.62187385       1.08226732       0.98163274
H        1.44906319       0.94831431      -0.27603428
