9
Properties=species:S:1:pos:R:3 -167091.61019808246=T pbc="F F F"
C       -0.65778455       0.15593627       1.09320578
C        0.56935847      -0.43715874       0.18134776
C        0.46080147      -0.11601374      -1.32845126
O        1.05076348       0.88301428      -1.70852727
O       -1.42710857      -0.52192874       1.72804779
H       -0.55280755       1.24483429       1.28476378
H        1.43992748       0.15102127       0.36024977
H        0.74285347      -1.53562476       0.63961477
H       -0.09091354      -0.86109675      -1.95268227
