9
Properties=species:S:1:pos:R:3 -167096.43077384445=T pbc="F F F"
C        0.67603575       0.45693753       0.88628273
C       -0.76208828      -0.14500848       0.29759172
C       -0.67138828      -0.69428849      -1.10615230
O       -0.24725227      -0.12465948      -2.09175732
O        0.97144675       0.49520753       2.04381275
H        1.28526276       0.71340353      -0.00731729
H       -1.23723629      -0.97370350       0.95953873
H       -1.50657329       0.71576253       0.19437772
H       -1.01622728      -1.78364051      -1.31110831
