9
Properties=species:S:1:pos:R:3 -167095.6369338844=T pbc="F F F"
C        1.24599890      -0.10029916       0.49282183
C        0.28851589       0.77991285      -0.49670618
C       -1.05441714       0.16822884      -0.42917818
O       -1.50879615      -0.55499117      -1.26925520
O        1.06381290      -0.23778217       1.66765085
H        2.17958792      -0.46739117      -0.10716218
H        0.20952988       1.76379287       0.07676183
H        0.71620089       0.67782585      -1.55093620
H       -1.75955215       0.51254485       0.41490983
