9
Properties=species:S:1:pos:R:3 -167097.0817215776=T pbc="F F F"
C        0.90414732       0.20695869       1.12759412
C        0.84561932       0.13057769      -0.30528990
C       -0.62186671      -0.36965232      -0.73933091
O       -0.98872072      -0.51474932      -1.88151793
O       -0.06107170       0.50024969       1.80247413
H        1.92095734       0.11559669       1.69814813
H        0.96311532       1.15440970      -0.77843091
H        1.65942233      -0.41476632      -0.75546591
H       -1.31223872      -0.24272132       0.10228210
