9
Properties=species:S:1:pos:R:3 -167095.76583761378=T pbc="F F F"
C       -0.68490969      -0.75492207       0.99332713
C       -0.74130569       0.36331195      -0.02369689
C        0.60995833       0.53453395      -0.79721390
O        0.61874733       0.74129295      -2.00951292
O        0.16428533      -0.90475708       1.83369914
H       -1.41791770      -1.55791309       0.89151913
H       -1.65020571       0.36460895      -0.66414090
H       -0.99943769       1.29005696       0.59577512
H        1.35929735       0.79577195      -0.08579289
