9
Properties=species:S:1:pos:R:3 -167087.74108991833=T pbc="F F F"
C        0.81684177      -0.19632608       1.22032478
C       -0.12981424      -0.85199809       0.16307876
C       -0.14639124      -0.13765808      -1.18771326
O       -1.01779426       0.18207093      -1.92306628
O        0.49830077       0.89804394       1.73403179
H        1.83683279      -0.50261608       1.54884978
H        0.10432476      -1.92086511      -0.06287325
H       -1.02562826      -0.53230108       0.64968677
H        0.89194577      -0.06513708      -1.46559927
