9
Properties=species:S:1:pos:R:3 -167093.99031189017=T pbc="F F F"
C        0.59046577      -0.04793043       1.22547512
C       -0.62665726      -0.02343943       0.36230010
C       -0.08742425       0.36398057      -1.20965893
O       -0.80233526       0.82443958      -2.10658194
O        0.90577277      -1.08826645       1.77996113
H        1.20022878       0.85929258       1.32146212
H       -0.98489326      -1.04701745       0.20177810
H       -1.43225627       0.65279958       0.50441210
H        1.04716377       0.23798357      -1.34610893
