9
Properties=species:S:1:pos:R:3 -167095.40060665022=T pbc="F F F"
C       -0.31680492      -1.10818163       0.53870934
C       -0.90417393       0.09347639      -0.09631167
C        0.27378909       1.04515940      -0.46662068
O        0.62277110       1.07867640      -1.60448070
O        0.26167609      -1.10331163       1.61105436
H       -0.69141992      -2.00484865       0.10429733
H       -1.40107694      -0.04780762      -1.07000269
H       -1.43251794       0.52047439       0.80288435
H        0.76622210       1.56054841       0.34691134
