9
Properties=species:S:1:pos:R:3 -167097.4653372548=T pbc="F F F"
C       -0.25390474       0.33446959       1.40631691
C        0.30371227       0.76348360       0.07443088
C        0.00791827      -0.21809542      -1.08066414
O        0.32685727       0.01202858      -2.20712016
O       -0.39073074      -0.84767343       1.82493491
H       -0.52132474       1.22414061       2.08193192
H       -0.14953174       1.76198062      -0.10385512
H        1.50813529       0.89367060       0.15596089
H       -0.51089174      -1.09381743      -0.83220813
