9
Properties=species:S:1:pos:R:3 -167090.56857470743=T pbc="F F F"
C        1.00067001       0.23806947       0.91465152
C       -0.38844201       0.54536648       0.20709151
C       -1.34962503      -0.54052154      -0.32413950
O       -1.20351403      -1.16544655      -1.34462851
O        1.88831102       0.93809948       0.63799052
H        1.02331201      -0.78985655       1.30957253
H       -0.97147703       1.30540249       0.77029252
H        0.07984199       0.95475548      -0.71368050
H       -2.21984205      -0.75447855       0.35174451
