9
Properties=species:S:1:pos:R:3 -167099.29295123785=T pbc="F F F"
C        0.05007780       0.72143933       0.88765302
C        0.61067481      -0.40702669       0.13591800
C       -0.17026520      -0.88853870      -1.08468302
O       -0.38457820      -0.19054169      -2.03789403
O       -0.06632720       0.73624733       2.08339404
H       -0.40055320       1.51684934       0.36405001
H        1.66725083      -0.14828669      -0.13414600
H        0.62529081      -1.22719371       0.89764802
H       -0.57594221      -1.96609272      -1.12202002
