9
Properties=species:S:1:pos:R:3 -167083.20327926116=T pbc="F F F"
C        0.48421326       1.04542613       0.74121181
C       -0.48254176      -0.06627689       0.63565881
C       -0.90886177      -0.42401990      -0.77166922
O       -0.85172477      -1.48972592      -1.34312623
O        1.71083628       0.94020212       0.77653881
H        0.07792425       2.23921715       0.77539881
H       -0.17249475      -1.11429491       1.02874281
H       -1.36587477       0.49147212       1.32354682
H       -1.37251877       0.49511712      -1.34156423
