9
Properties=species:S:1:pos:R:3 -167094.09586773068=T pbc="F F F"
C       -0.68962381      -0.09711571       1.28423076
C       -0.69254181       0.82705230       0.00219274
C        0.00200520       0.14242529      -1.24561228
O        1.10360022       0.12061729      -1.56639928
O        0.19200720      -0.93504273       1.52024177
H       -1.51190683       0.19935529       2.03196978
H       -1.68842483       1.05674331      -0.22695126
H       -0.07454980       1.67151432       0.24286775
H       -0.85401481      -0.38915372      -1.80126529
