9
Properties=species:S:1:pos:R:3 -167088.75618400265=T pbc="F F F"
C        1.09161505      -0.49176851       0.71542082
C       -0.20348997      -0.42614351       0.05207281
C       -0.54779897       0.64669051      -1.19907521
O       -1.56528799       1.19039851      -1.39762921
O        1.23848606      -0.89051952       1.81334484
H        2.00271207      -0.21504351       0.16910381
H       -0.22945997      -1.40384253      -0.49420620
H       -1.01213298      -0.49846051       0.84412382
H        0.37326004       0.58743750      -1.97796222
