9
Properties=species:S:1:pos:R:3 -167096.67150329132=T pbc="F F F"
C       -0.92566853       0.11266413       0.88414990
C       -0.52302352      -0.47729988      -0.53248413
C        0.88131351       0.02634013      -0.71685213
O        1.17537651       0.82421114      -1.60634515
O       -0.66634452      -0.50875988       1.93024791
H       -1.38410753       1.12790315       0.95964290
H       -0.50364952      -1.55886590      -0.48145813
H       -1.12539353      -0.01581687      -1.35672014
H        1.69012252      -0.53163288       0.08617488
