9
Properties=species:S:1:pos:R:3 -167095.72906780906=T pbc="F F F"
C       -0.46934979      -0.60679221       0.99097049
C       -0.80338879       0.14195581      -0.35800953
C        0.57457523       0.58183881      -1.02172454
O        1.08983524       1.71763283      -0.84901654
O       -0.44753579      -1.82371323       1.18639150
H       -0.37539178       0.22426181       1.74046551
H       -1.23986780      -0.71711921      -0.96341654
H       -1.42019780       1.03013082      -0.02264952
H        1.15461024      -0.24682820      -1.47984355
