9
Properties=species:S:1:pos:R:3 -167088.90732076147=T pbc="F F F"
C        0.93668029       0.04434134       1.08296051
C       -0.08560672       0.83754335       0.30926950
C       -0.60271673       0.30936634      -1.04157653
O       -1.74589775      -0.19297766      -0.95822952
O        1.52986330      -0.89447768       0.62737150
H        1.13641130       0.31807334       2.08359153
H       -1.02152574       0.98034936       0.88082051
H        0.45830929       1.86612837       0.07829549
H       -0.10171372      -0.08986766      -1.96692154
