9
Properties=species:S:1:pos:R:3 -167092.62670260723=T pbc="F F F"
C       -0.42138695      -0.91070984       0.77697433
C        0.57953807       0.22030318       0.22258732
C       -0.19494794       1.23067620      -0.65111369
O        0.05985106       1.22818420      -1.84062971
O       -0.03808594      -1.72153585       1.54134035
H       -1.42240497      -0.89748184       0.31726932
H        1.25536908       0.73432919       0.92872033
H        1.00265808      -0.45104383      -0.55483069
H       -0.74291695       2.01114821      -0.09012968
