9
Properties=species:S:1:pos:R:3 -167095.86359943953=T pbc="F F F"
C       -0.64355280      -0.12022233       1.28339239
C        0.51500922       0.40689268       0.45090038
C        0.14725222       0.61263868      -1.00756265
O        0.94150023       0.43822668      -1.92826166
O       -0.94753080      -1.28556635       1.27476139
H       -1.39161181       0.59341068       1.68624140
H        0.76767323       1.37471770       0.80633638
H        1.21888124      -0.41956633       0.46597538
H       -0.72199380       1.19141470      -1.24008065
