9
Properties=species:S:1:pos:R:3 -167093.93761798006=T pbc="F F F"
C        0.65266344      -0.10562888       0.86881823
C       -0.10540658       0.88376614      -0.01275879
C       -0.54825458       0.35058213      -1.34035781
O       -0.67532759      -0.83512389      -1.63367182
O        0.66721744      -0.21131188       2.08115325
H        1.13783444      -0.90222589       0.22091721
H       -0.97009759       1.43814015       0.60833122
H        0.87907144       1.49663515      -0.11560579
H       -0.90621459       1.13567714      -2.04903983
