9
Properties=species:S:1:pos:R:3 -167088.79526739815=T pbc="F F F"
C       -0.14504231      -0.41041199       0.97187825
C        0.79999271       0.17875802      -0.19222477
C        0.11065970       0.17012702      -1.39391879
O       -1.05756532       0.63404203      -1.44473979
O        0.34312570      -0.58844399       2.02689727
H       -1.17978632      -0.71803200       0.71741325
H        1.11087272       1.25864704      -0.12857276
H        1.79178773      -0.40356299      -0.15903177
H        0.49981271      -0.12813499      -2.35511880
