9
Properties=species:S:1:pos:R:3 -167096.11520033254=T pbc="F F F"
C        0.95793318      -0.60585807       0.61967037
C       -0.35592885       0.01377294       0.58045537
C       -0.79569085       0.49322695      -0.84758966
O       -1.83661087       0.18766995      -1.41095667
O        2.00413520      -0.11701606       1.10064338
H        1.10520118      -1.47874108      -0.00363464
H       -1.03028486      -0.65148807       0.96444937
H       -0.35122685       0.96605596       1.07183038
H       -0.07622984       1.21993197      -1.30533467
