9
Properties=species:S:1:pos:R:3 -167098.27312219873=T pbc="F F F"
C       -0.49728377      -0.87579235       0.65421075
C        0.83760125      -0.27476834       0.07808574
C        0.71641425       0.91794868      -0.94150127
O       -0.21554577       1.20938869      -1.64614629
O       -0.78435978      -0.98132435       1.84674577
H       -1.14658678      -1.27305935      -0.02118226
H        1.45602626      -0.02740033       0.89888176
H        1.31815226      -1.05802535      -0.53611427
H        1.65931126       1.50860969      -1.03427928
