9
Properties=species:S:1:pos:R:3 -167087.6116038567=T pbc="F F F"
C       -0.16501862      -0.12432293       1.27342011
C       -0.11176762      -0.61878394      -0.05195391
C        0.83527140       0.18394308      -0.88501593
O        0.70823340       0.42711508      -2.05325095
O       -1.25295864       0.08708908       1.73901812
H        0.67519540       0.21484308       1.84566912
H        0.66806840      -1.53702595      -0.12150891
H       -1.06196963      -0.73746394      -0.51940892
H        1.71410342       0.55672108      -0.22370392
