9
Properties=species:S:1:pos:R:3 -167097.13413769458=T pbc="F F F"
C        0.81364656       0.33055683       0.99441541
C       -0.33918446       0.44982383       0.15397939
C       -0.22888545      -0.29910618      -1.17961063
O       -1.07690047      -0.26938118      -2.06548064
O        0.84879556      -0.18179518       2.09837643
H        1.71656758       0.73092884       0.50518440
H       -1.23003147       0.21766183       0.76833440
H       -0.45954546       1.44928885      -0.28137561
H        0.66916056      -0.96783619      -1.14254163
