9
Properties=species:S:1:pos:R:3 -167097.97313887285=T pbc="F F F"
C        0.53247791       0.77132906       0.83807336
C        0.67632491      -0.26058196      -0.25220366
C       -0.32566511      -0.12893295      -1.30995867
O       -1.31405312      -0.81076797      -1.33058268
O        0.48630691       0.46121206       2.00087338
H        0.34174091       1.83517608       0.55764636
H        1.75329693      -0.08244595      -0.54190666
H        0.51112091      -1.25841497       0.12693835
H        0.01540490       0.50719506      -2.15907469
