9
Properties=species:S:1:pos:R:3 -167095.3914184584=T pbc="F F F"
C       -0.73747877       0.05101235       1.20174389
C       -0.51257477      -0.11617565      -0.26092013
C        0.75677825       0.46588536      -0.92675915
O        0.91693026       0.36267736      -2.12036517
O       -0.45794877      -0.70457566       2.08588991
H       -1.19064278       1.06137437       1.52973190
H       -0.27103676      -1.20559267      -0.34570414
H       -1.47267278       0.02647035      -0.72245414
H        1.52332727       0.77259336      -0.08189113
