9
Properties=species:S:1:pos:R:3 -167089.70771830276=T pbc="F F F"
C        0.04465721      -0.58570909       1.35862330
C        0.48122922      -0.41886909      -0.07052372
C       -0.10398679       0.65387993      -0.98720974
O        0.69615522       0.94344494      -1.90513475
O       -1.11174981      -0.57039909       1.63224031
H        0.93069823      -0.85526910       2.09246732
H        1.51351224      -0.58096609      -0.24234773
H        0.10354821      -1.47015511      -0.46150473
H       -0.97545781       1.16158594      -0.64022573
