9
Properties=species:S:1:pos:R:3 -167091.70669952323=T pbc="F F F"
C        0.63754264       0.69777075       1.07890508
C       -0.64834338       0.30875074       0.45907107
C       -0.42041737      -0.61546228      -0.82859995
O       -1.25907339      -1.37281729      -1.07874296
O        1.64919566       0.98752275       0.40261407
H        0.71214665       0.87570575       2.24921110
H       -1.40167839      -0.10974727       1.08400408
H       -1.11292139       1.26031376       0.12759406
H        0.74536965      -0.56764328      -1.17657396
