9
Properties=species:S:1:pos:R:3 -167080.55726103764=T pbc="F F F"
C       -1.01057519      -0.43260462       0.87987530
C       -0.51616318      -0.52514162      -0.48937972
C        0.57805184       0.54489040      -0.72666473
O        1.29539385       0.45327640      -1.60602174
O       -0.40953518      -0.08758661       1.89257532
H       -2.21290521      -0.48377162       1.16253431
H        0.24707883      -1.34039563      -0.44682072
H       -1.29834620      -0.54560962      -1.17339773
H        0.50080083       1.48181841      -0.08742071
