9
Properties=species:S:1:pos:R:3 -167095.26953657006=T pbc="F F F"
C        0.60920313       0.73557696       1.02668781
C       -0.65817189       0.38994995       0.34556880
C       -0.44643388      -0.57282306      -0.80938622
O       -1.24683290      -1.50371808      -0.99135923
O        1.71306015       0.98762096       0.48862580
H        0.61735513       0.31626795       2.07113183
H       -1.52747990       0.19908595       0.99742681
H       -0.89314489       1.30264797      -0.24658421
H        0.30257913      -0.20811606      -1.54523124
