9
Properties=species:S:1:pos:R:3 -167088.35426157946=T pbc="F F F"
C       -0.24598126      -0.04167201       1.24639888
C       -0.15679126      -0.58184002      -0.09889715
C        0.88491876       0.18967000      -0.89278416
O        0.76125276       0.39582700      -2.11073518
O       -1.27198528       0.05253099       1.88455789
H        0.86184576       0.01371299       1.72779588
H        0.53020275      -1.56389903       0.04331085
H       -0.99816327      -0.87069102      -0.72345416
H        1.97097778       0.47079300      -0.49093316
