9
Properties=species:S:1:pos:R:3 -167095.69472222216=T pbc="F F F"
C        1.30245579      -0.00145512       0.70051649
C        0.24450877      -0.78630014       0.10555948
C       -1.05752825      -0.08589813      -0.30724853
O       -1.66903226      -0.37595513      -1.27910755
O        1.21512779       1.21017690       0.78334649
H        2.13787080      -0.63882614       1.25638450
H        0.64611878      -1.39279015      -0.59933553
H       -0.03087623      -1.57756315       0.89529849
H       -1.37695426       0.77191589       0.37628748
