9
Properties=species:S:1:pos:R:3 -167085.39450580298=T pbc="F F F"
C        0.61412787      -0.05878486       1.20803589
C       -0.63378215      -0.02261086       0.38961488
C       -0.09312714       0.38181615      -1.23174615
O       -0.78825315       0.80549015      -2.11287717
O        0.90641188      -1.10408388       1.79189990
H        1.07551388       0.99887816       1.26540689
H       -1.11921616      -0.98232688       0.12981587
H       -1.47416017       0.71244915       0.63458188
H        0.98546688       0.43284415      -1.29242615
