9
Properties=species:S:1:pos:R:3 -167096.4948479092=T pbc="F F F"
C        1.09120583      -0.25230946       0.18188808
C       -0.32480620      -0.76518547       0.28713608
C       -1.32959721       0.26269355      -0.34962093
O       -1.14408921       0.92019656      -1.33160194
O        1.70010884      -0.21897346       1.22618110
H        1.47015883       0.21022955      -0.81716393
H       -0.62376320      -1.53978648      -0.48060993
H       -0.66847820      -0.95274347       1.32947610
H       -2.29645523       0.14067155       0.21968908
