9
Properties=species:S:1:pos:R:3 -167085.45919213278=T pbc="F F F"
C        1.02938285      -0.14579883       0.83333432
C       -0.41870517       0.15290218       0.72321431
C       -0.80945618       0.85922719      -0.66606271
O       -1.48228219       0.35532318      -1.46698772
O        1.66277086      -1.18359584       0.62001331
H        1.48005586       0.65554719       1.38837233
H       -1.07356118      -0.72100384       0.73507831
H       -0.67343818       1.11332420       1.47721933
H       -0.23072117       1.78217121      -0.76143471
