9
Properties=species:S:1:pos:R:3 -167095.51123072722=T pbc="F F F"
C        0.10783207       0.72205536       1.12125610
C        0.16241307       0.70744236      -0.34552093
C       -0.79319494      -0.42488266      -0.82005493
O       -0.63720594      -1.28209768      -1.66890995
O        1.11771909       0.33234535       1.71445711
H       -0.77670794       1.21372836       1.63337911
H       -0.16155993       1.60202437      -0.88422994
H        1.22982209       0.68314236      -0.69157593
H       -1.69097296      -0.38741566      -0.25273192
