9
Properties=species:S:1:pos:R:3 -167088.68912383632=T pbc="F F F"
C        0.57958082       1.03131649       0.91698641
C       -0.73278520       0.55557249       0.23522440
C       -0.61818020      -0.93555454      -0.27499561
O       -0.95273721      -1.24395355      -1.34699963
O        1.70287984       0.64113949       0.52005940
H        0.52250582       1.68563251       1.72178942
H       -1.57140122       0.71856749       0.95704941
H       -1.01786921       1.14587150      -0.53766562
H       -0.65379920      -1.73830255       0.53811740
