9
Properties=species:S:1:pos:R:3 -167094.4405942048=T pbc="F F F"
C       -0.60464016      -0.24538410       0.92793744
C        0.57652286      -0.36837310       0.06613643
C        0.68162986       0.18155791      -1.31281960
O        0.21691585       1.29439393      -1.59295960
O       -0.86018117      -0.93190211       1.87267946
H       -1.14639517       0.72915692       0.69749744
H        1.21330487       0.41367191       0.57448744
H        1.20837987      -1.37830612       0.20639543
H        1.15253587      -0.37140810      -2.12248661
