9
Properties=species:S:1:pos:R:3 -167092.6244570426=T pbc="F F F"
C        1.16580591       0.02213806       0.61963226
C       -0.43762412       0.14742907       0.54652826
C       -0.73117513       0.12726207      -0.98316977
O       -1.87297315       0.39430207      -1.35078977
O        1.88067592      -0.68644395       1.19740627
H        1.65414892       0.90106908       0.02926025
H       -1.05894713      -0.67700195       0.85906626
H       -0.74120513       1.08407908       1.02737627
H        0.05939589      -0.20593694      -1.66023478
