9
Properties=species:S:1:pos:R:3 -167096.6224336515=T pbc="F F F"
C       -0.06896037       0.39091554       1.11661540
C        0.04680564      -0.82173948       0.13152838
C        0.12159764      -0.48911348      -1.29494365
O       -0.72661238       0.12818753      -1.96909766
O        0.63782065       0.72693154       2.00428241
H       -0.97281338       1.00206755       0.78034939
H        0.95788565      -1.36688349       0.42470638
H       -0.89432038      -1.40294349       0.37928438
H        1.13438765      -0.85006348      -1.58550965
