9
Properties=species:S:1:pos:R:3 -167088.5122779023=T pbc="F F F"
C        0.69897136       0.35899187       1.19741720
C       -0.61249166      -0.07086314       0.71717820
C       -0.82724267      -0.65468315      -0.59004683
O       -0.99231467      -0.02714214      -1.62605085
O        1.70089238       0.35300387       0.41715819
H        0.62729036       1.04570588       2.10529022
H       -1.01702267      -0.84716715       1.40564321
H       -1.21991867       0.82805988       0.69395719
H       -0.81585367      -1.83376017      -0.79005983
