9
Properties=species:S:1:pos:R:3 -167092.63139574026=T pbc="F F F"
C        1.11539049       0.79806283       0.64928274
C       -0.27213453       0.70658683       0.03292773
C       -0.70228654      -0.53716519      -0.67388029
O       -1.76420056      -0.75767119      -1.19071230
O        1.60822750      -0.15373818       1.22760375
H        1.76767950       1.72861285       0.56711074
H       -1.09821655       1.27272184       0.49462473
H       -0.12707553       1.17070884      -0.95228829
H        0.25451948      -1.22698720      -0.79412729
