9
Properties=species:S:1:pos:R:3 -167094.67169812764=T pbc="F F F"
C        0.28931522      -0.73558469       1.08023266
C        0.32363722      -0.37859269      -0.44248537
C       -0.84129980       0.24450932      -1.11550038
O       -0.99416880       1.39775234      -1.46201239
O        1.19846324      -0.57204969       1.87422067
H       -0.61829779      -1.16042170       1.56332067
H        1.23444724       0.28157532      -0.46816837
H        0.57365923      -1.31954870      -0.98396438
H       -1.71321681      -0.55111669      -0.96470838
