9
Properties=species:S:1:pos:R:3 -167091.78509161132=T pbc="F F F"
C        0.49087356       1.16951640       0.69034422
C       -0.40561046      -0.06275162       0.53828522
C       -0.96584147      -0.43223963      -0.77496180
O       -0.85957547      -1.47716564      -1.27972381
O        1.66002958       0.87548440       0.84879823
H        0.24058755       2.21004142       0.53416722
H        0.28706055      -0.96636064       0.76268422
H       -1.16922447      -0.11585762       1.36172023
H       -1.57731548       0.38983939      -1.22121281
