9
Properties=species:S:1:pos:R:3 -167090.64024478802=T pbc="F F F"
C        1.19748383       0.44209758       0.79130664
C        0.29239482      -0.89011144       0.43626563
C       -1.06457221      -0.47597743      -0.15219138
O       -1.40210121      -0.65251044      -1.25746440
O        0.96047583       1.51910860       0.27846463
H        2.13134385       0.29157658       1.43814665
H        1.00740283      -1.33822345      -0.39252438
H        0.45527482      -1.77970546       1.12897365
H       -1.64915722       0.07461658       0.55846464
