9
Properties=species:S:1:pos:R:3 -167093.17219465855=T pbc="F F F"
C        0.28761432       0.16561239       1.36715748
C        0.53068333      -0.70167763       0.14717446
C       -0.28996369      -0.27148562      -0.91444756
O       -0.03657568      -0.35082762      -2.09571658
O       -0.46066569       1.10056040       1.51951649
H        0.97508134      -0.00640462       2.17192350
H        1.62604035      -0.65718963      -0.16716854
H        0.18504732      -1.74249065       0.40848147
H       -1.18536970       0.12265139      -0.41124355
