9
Properties=species:S:1:pos:R:3 -167094.51018846896=T pbc="F F F"
C       -0.48606740      -0.58363548       0.72205837
C        0.64375962       0.32897653       0.39052836
C        0.46499962       0.78116554      -1.01837466
O        0.52099862      -0.06210648      -1.91063468
O       -1.08801741      -0.42497748       1.79778739
H       -0.71180540      -1.46126350       0.05571636
H        0.43261162       1.11373255       1.05874837
H        1.68217064      -0.13100048       0.56688437
H        0.18173762       1.93988356      -1.01214766
