9
Properties=species:S:1:pos:R:3 -167093.82288593706=T pbc="F F F"
C        0.66951444       0.06173944       1.30361034
C        0.85701144      -0.21961656      -0.20677568
C       -0.43038558       0.04130044      -1.01063370
O       -0.76674959      -0.40184757      -2.04465172
O       -0.28011758       0.46828945       1.96502735
H        1.65439446      -0.06579256       1.82616235
H        1.46932045       0.53940245      -0.61880369
H        1.38286045      -1.06587858      -0.53707169
H       -0.94358859       0.92584646      -0.43297069
