9
Properties=species:S:1:pos:R:3 -167095.98082504873=T pbc="F F F"
C       -0.21139144      -0.60713539       1.20663940
C       -0.84844545      -0.60441939      -0.16812563
C       -0.31599544       0.28046662      -1.25220164
O        0.90048758       0.48990163      -1.48032565
O        0.38893857       0.37455663       1.68613441
H       -0.20191344      -1.60047441       1.68016041
H       -0.90485845      -1.62004941      -0.69776563
H       -1.87871647      -0.25912139       0.01340538
H       -1.09684046       0.84637263      -1.71778965
