9
Properties=species:S:1:pos:R:3 -167099.0903271581=T pbc="F F F"
C        0.18836708      -0.57129619       1.23116013
C        0.23859308      -0.74038719      -0.20796990
C        0.03116308       0.58770283      -0.84518791
O        0.34984108       0.80036284      -2.01581093
O       -0.76606094      -0.11707518       1.85120714
H        1.03959409      -0.93440319       1.80188914
H        1.09623709      -1.22803220      -0.56978790
H       -0.61548594      -1.44520520      -0.48545590
H       -0.36942893       1.38368185      -0.25370690
