9
Properties=species:S:1:pos:R:3 -167099.19105036187=T pbc="F F F"
C       -0.17932899       0.23240878       1.08705862
C        0.26149002      -0.85483424       0.10096061
C        0.17226002      -0.37605223      -1.29336742
O       -0.76917800       0.19010178      -1.79606543
O        0.55131903       0.75021079       1.90240464
H       -1.30991901       0.57771478       1.09967862
H        1.27533904      -1.20918325       0.39098861
H       -0.53424399      -1.60873325       0.00156760
H        0.99705603      -0.79453824      -1.92555243
