9
Properties=species:S:1:pos:R:3 -167094.4835845884=T pbc="F F F"
C       -0.19855504       0.42518995       1.23300327
C        0.18164297       0.76304795      -0.24451375
C       -0.55554604       0.01000694      -1.22175477
O       -0.19630704      -1.02153208      -1.67542378
O        0.70761698      -0.10509106       1.89628528
H       -1.21587505       0.63561395       1.65479428
H        0.01064197       1.84638197      -0.37769876
H        1.32008399       0.62120895      -0.37747476
H       -1.41355006       0.50982595      -1.62740378
