9
Properties=species:S:1:pos:R:3 -167096.47916212192=T pbc="F F F"
C        0.48341397       0.20839624       1.24346577
C       -0.74037305       0.19530524       0.28624376
C       -0.28213804       0.45794824      -1.12859027
O       -0.49195004      -0.10921977      -2.17145328
O        0.99238098      -0.73053178       1.80460878
H        1.07203698       1.17703725       1.10696877
H       -1.39166106      -0.68601678       0.60478976
H       -1.38330206       1.08512525       0.52029876
H        0.17966097       1.49180526      -1.18602727
