9
Properties=species:S:1:pos:R:3 -167097.32163359594=T pbc="F F F"
C        1.26459467      -0.43757505       0.32718484
C        0.21172366      -0.66629505      -0.88289918
C       -1.09814637       0.08123096      -0.55140018
O       -1.29518837       1.29570798      -0.44497917
O        0.93467767      -0.34750905       1.47079286
H        2.27274469      -0.31823505      -0.11875217
H        0.74952067      -0.16500604      -1.68717520
H        0.15350966      -1.77013907      -1.07247918
H       -1.95703738      -0.61883605      -0.21977817
