9
Properties=species:S:1:pos:R:3 -167098.61601251055=T pbc="F F F"
C        0.60165710       0.05270702       1.02688354
C        0.27312309       0.53669903      -0.42545248
C       -0.82213993      -0.11923598      -1.09120950
O       -0.84130493      -1.28688100      -1.38913650
O        0.78785710       0.84508604       1.86682556
H        0.59701510      -1.03442800       1.17604254
H        0.14740709       1.59649005      -0.45990049
H        1.19573211       0.37487103      -1.05802250
H       -1.71867694       0.47643903      -1.40768350
