9
Properties=species:S:1:pos:R:3 -167097.7912326354=T pbc="F F F"
C        0.20236322       0.48171680       1.19383994
C        0.29804022       0.37541479      -0.33047908
C       -0.85735880      -0.41946222      -0.87631009
O       -0.80134779      -1.17607923      -1.86932611
O        1.13253324       0.76077180       1.90173696
H       -0.77486679       0.12939779       1.54715595
H        0.33065422       1.40144581      -0.66609909
H        1.31473924       0.03703079      -0.77428509
H       -1.87647381      -0.18789822      -0.46697109
