9
Properties=species:S:1:pos:R:3 -167093.99253937657=T pbc="F F F"
C        0.75464230      -0.15178886       1.11487332
C        0.11350429      -0.32642287      -0.27393771
C       -1.22655873       0.14937214      -0.51024371
O       -1.63653874       0.46900015      -1.62756073
O        1.97406432      -0.13847486       1.30651132
H        0.06648729       0.22953714       1.94110833
H        0.80646730      -0.28128187      -1.09143472
H        0.00484629      -1.46329689      -0.04914670
H       -1.96702475       0.18480214       0.35726831
