9
Properties=species:S:1:pos:R:3 -167089.8312284003=T pbc="F F F"
C       -0.21348507      -0.60228349       1.26161480
C        0.07417894       0.67741153       0.40209978
C        1.03858695       0.46840353      -0.80955724
O        0.51349994       0.59029953      -1.85885926
O       -1.31858509      -1.13511050       1.06320079
H        0.47786794      -0.75439149       2.15850481
H       -0.91080608       1.06287754      -0.10203623
H        0.42904394       1.60303355       1.03523079
H        2.07359697       0.26328853      -0.63432724
