9
Properties=species:S:1:pos:R:3 -167091.02514226464=T pbc="F F F"
C        0.30183113       0.94687349       0.73033613
C        0.84560614       0.04863448      -0.42046189
C       -0.22102587      -1.02437354      -0.93427390
O       -1.38384389      -0.80808854      -1.27622790
O        0.51623414       0.83222949       1.89455515
H       -0.41471188       1.72153451       0.40727113
H        1.12343015       0.58844649      -1.40566590
H        1.79180216      -0.38224953      -0.35792889
H        0.23845413      -1.96716856      -1.02235890
