9
Properties=species:S:1:pos:R:3 -167092.29069907372=T pbc="F F F"
C        0.19958123      -0.98159503       0.75729983
C       -0.14071978       0.54490800       0.43307382
C       -0.23122278       0.84679201      -0.96726220
O        0.71265424       1.24316101      -1.68303622
O       -0.56572479      -1.60910104       1.47608084
H        1.20019124      -1.47050603       0.36023382
H       -1.11206680       0.77056200       1.10672483
H        0.74468324       1.11151101       0.68076283
H       -1.11240780       0.51311700      -1.51973921
