9
Properties=species:S:1:pos:R:3 -167093.60790368862=T pbc="F F F"
C       -0.45264298       0.00631354       1.06093846
C        0.22449403      -0.76227847       0.00227844
C        0.53536903      -0.03458746      -1.38253559
O        0.61560404       1.11048956      -1.79302359
O       -0.93621899      -0.36422446       2.10138247
H       -0.54549798       1.07187256       0.92119145
H        1.24843105      -1.00274847       0.40122945
H       -0.18637098      -1.69637849      -0.27527357
H        0.91381304      -0.80354247      -2.13895360
