9
Properties=species:S:1:pos:R:3 -167093.9999158209=T pbc="F F F"
C       -0.30479048      -0.10684264       1.26280532
C       -0.06195747      -0.43842864      -0.16102771
C       -0.11104847       0.51892337      -1.33122773
O        0.84416354       1.12373438      -1.76185573
O       -0.40307748      -1.06235965       1.96779433
H       -0.31768848       0.89480538       1.68356833
H        0.88204555      -0.91003165      -0.14514471
H       -0.81469148      -1.26745166      -0.24844271
H       -1.06098149       0.62233638      -1.82635273
