9
Properties=species:S:1:pos:R:3 -167099.1148887208=T pbc="F F F"
C        0.15504384       0.12854413       1.30664049
C       -0.97722118      -0.24546988       0.38084748
C       -0.82155818       0.20507113      -1.06003355
O        0.22909084       0.07777713      -1.69896656
O        1.30624086      -0.14922487       1.12507949
H       -0.17584217       0.89624814       2.07332551
H       -0.81885218      -1.37605090       0.27908448
H       -1.98347420      -0.03529887       0.77971748
H       -1.81698220       0.59949714      -1.49511556
