9
Properties=species:S:1:pos:R:3 -167096.14585924865=T pbc="F F F"
C       -0.14286029       0.23276209       1.46372835
C       -0.29916930       0.53675210      -0.03071268
C        0.07271371      -0.37726192      -1.23458070
O       -0.59270530      -0.47887392      -2.21074072
O        0.92774972       0.09983209       2.03104236
H       -1.12619531       0.11522609       2.05369036
H       -1.34723432       0.88716410      -0.36115869
H        0.54569372       1.32391111      -0.18206368
H        1.00771873      -0.98111293      -1.02125570
