9
Properties=species:S:1:pos:R:3 -167098.7748325323=T pbc="F F F"
C       -0.33876823      -0.61131473       0.85104105
C       -0.22401923       0.69885929       0.14669803
C        0.17870778       0.71846929      -1.34701799
O        1.19116380       0.04386028      -1.67056200
O       -0.85897724      -0.79064774       1.97082307
H        0.16890178      -1.49269575       0.37885704
H       -1.11755124       1.30005530       0.36907604
H        0.60960779       1.06829130       0.68244804
H       -0.35982923       1.37933930      -2.03693800
