9
Properties=species:S:1:pos:R:3 -167092.70437005293=T pbc="F F F"
C       -0.51643375      -0.66440969       0.86591969
C        0.65516427       0.34570933       0.44741168
C        0.44491027       0.70832133      -1.07857034
O        0.60410527       0.04078032      -2.07020736
O       -1.12805076      -0.40418069       1.85450771
H       -0.86085275      -1.40944470       0.12450868
H        0.54254027       1.10940934       1.14581169
H        1.61519429      -0.24332168       0.46443668
H        0.06920226       1.67163435      -1.10670634
