9
Properties=species:S:1:pos:R:3 -167086.84006247515=T pbc="F F F"
C       -0.73882163      -0.44228725       1.21496489
C       -0.03736061      -0.28062925      -0.07381314
C        0.11439339       0.96407477      -1.12696815
O        0.83599440       0.85915877      -2.11513817
O       -0.24039562      -1.07301226       2.12839490
H       -1.75649264       0.18658176       1.26930389
H        1.06097341      -0.48646425       0.10179187
H       -0.27921362      -0.96516026      -0.82846715
H       -0.59804562       1.78762278      -0.92190415
