9
Properties=species:S:1:pos:R:3 -167096.15392526376=T pbc="F F F"
C        0.06542555      -0.68709062       1.10506960
C        0.62989856      -0.52977762      -0.33517942
C       -0.15744645       0.62373640      -0.92348143
O       -0.82661446       0.53979640      -1.88641345
O        0.33066756       0.02317839       1.99731062
H       -0.52977546      -1.57941463       1.26717860
H        1.76555158      -0.23649961      -0.20938642
H        0.42431856      -1.48709563      -0.84615543
H       -0.19347445       1.43051042      -0.14287042
