9
Properties=species:S:1:pos:R:3 -167089.13686141485=T pbc="F F F"
C       -0.00783468      -0.52370005       1.00427543
C       -0.47170868      -0.40047205      -0.39860959
C        0.57674733       0.39091796      -1.10526361
O        0.33917633       1.54306398      -1.42292061
O       -0.45646368      -1.06392906       1.91367545
H        1.03937234       0.01347796       1.02738043
H       -0.42472568      -1.34711407      -0.88058360
H       -1.49998470       0.05440496      -0.58831360
H        1.58938235       0.02437796      -1.39849361
