9
Properties=species:S:1:pos:R:3 -167095.78613801775=T pbc="F F F"
C        0.85449685       0.65480497       0.27029585
C       -0.12800117      -0.34758305       0.58429985
C       -1.22546519      -0.47341105      -0.47371217
O       -0.93664218      -1.18086406      -1.45620418
O        1.35584886       1.34783398       1.11298986
H        1.31701986       0.64262197      -0.73625217
H        0.43331084      -1.30918707       0.50503585
H       -0.39622917      -0.14931905       1.60328087
H       -2.06607120       0.14473596      -0.46011917
