9
Properties=species:S:1:pos:R:3 -167097.70856894634=T pbc="F F F"
C       -0.27178861       0.12564851       1.24886903
C       -0.20086560      -0.57910150      -0.10664699
C        0.89289241       0.08291551      -0.93252801
O        0.82395141       0.45245952      -2.10809403
O       -1.23048562      -0.10357849       1.93691004
H        0.61025941       0.76132753       1.53196704
H        0.02162540      -1.63054452       0.00128901
H       -1.07505262      -0.55119350      -0.80909500
H        1.89145643       0.29534152      -0.50413800
