9
Properties=species:S:1:pos:R:3 -167088.2543666237=T pbc="F F F"
C        0.14132510      -0.72766978       0.99692090
C        0.88341512       0.25064624       0.08345489
C       -0.10939190       0.71201724      -1.07076213
O       -0.36623691       0.16748723      -2.04737615
O       -0.46156891      -0.40323378       2.05217292
H       -0.10677490      -1.74897180       0.46779789
H        1.11988512       1.33504926       0.55874490
H        1.76753813      -0.29070777      -0.42763112
H       -0.54166491       1.64806926      -0.78950813
