9
Properties=species:S:1:pos:R:3 -167091.47925273076=T pbc="F F F"
C       -0.27618198       0.57796057       1.32616419
C       -0.41382498      -0.52166745       0.27573017
C        0.08465903      -0.10996044      -1.23467885
O       -0.28605998      -0.75282145      -2.14594887
O        0.81121404       0.81166358       1.80318220
H       -1.07527599       1.32810559       1.68546520
H        0.48807203      -1.16435346       0.62070418
H       -1.35311200      -1.16542746       0.04705617
H        0.81351404       0.70681558      -1.28564186
