9
Properties=species:S:1:pos:R:3 -167099.5953391521=T pbc="F F F"
C        0.68168310      -0.02903911       0.98960633
C        0.30768410       0.52941590      -0.39831169
C       -0.91216293       0.03503589      -1.14775371
O       -1.01311593      -1.12304613      -1.51707971
O        0.90877411       0.61255190       2.03297935
H        0.93166911      -1.14548813       1.04369633
H        0.24035709       1.64798692      -0.24512469
H        1.22155811       0.42448290      -0.93927770
H       -1.65686194       0.79986491      -1.42133271
