9
Properties=species:S:1:pos:R:3 -167098.58162299122=T pbc="F F F"
C       -0.40574453      -0.00808178       1.36807432
C        0.81040949      -0.03953178       0.48512930
C        0.38937649       0.48421223      -0.86933372
O        0.80133349      -0.04443278      -1.86705374
O       -1.51813755      -0.35472479       0.93631631
H       -0.38680153       0.31251222       2.41487233
H        1.54215351       0.54919823       1.05916131
H        1.06421950      -1.05853080       0.49590630
H       -0.29788653       1.33323524      -0.91323172
