9
Properties=species:S:1:pos:R:3 -167091.35491009173=T pbc="F F F"
C        1.26292282      -0.63756371       0.44125694
C       -0.05925120      -0.75505471      -0.35327508
C       -1.15310422       0.35743931      -0.20982808
O       -1.59211923       0.86379132      -1.21367609
O        1.53756183       0.13438630       1.33545895
H        2.00935383      -1.61545873       0.31144393
H        0.17675180      -0.78417171      -1.39907110
H       -0.26740521      -1.74459873      -0.07153107
H       -1.65493223       0.62812631       0.67717794
