9
Properties=species:S:1:pos:R:3 -167099.9718190088=T pbc="F F F"
C       -0.78768192       0.10432936       0.65297715
C       -0.30757792      -0.85601065      -0.38996787
C        0.61744910      -0.10623464      -1.28855489
O        1.13405011       0.92616138      -0.87287788
O       -0.67823092      -0.11265664       1.83497317
H       -1.39616793       0.88437238       0.14409214
H        0.21345509      -1.78386467      -0.05971187
H       -1.18789593      -1.35847666      -0.83958888
H        0.82563810      -0.43788364      -2.30294590
