9
Properties=species:S:1:pos:R:3 -167100.3521609629=T pbc="F F F"
C        0.62263085       1.12169272       0.71840159
C       -0.58007917       0.54456771       0.05254758
C       -0.59432417      -0.90221831      -0.35356543
O       -1.18307118      -1.33478732      -1.31579944
O        1.72560387       0.61414072       0.91898759
H        0.34023384       2.13973574       1.09610760
H       -1.54065919       0.51795771       0.65683559
H       -0.84967318       1.16042372      -0.81086644
H        0.00957184      -1.47825132       0.38589858
