9
Properties=species:S:1:pos:R:3 -167098.02605815977=T pbc="F F F"
C       -0.43625533      -0.39285089       1.31781603
C        0.68160669       0.13114712       0.49986801
C        0.39316169       0.48745413      -1.00870401
O        0.98479770      -0.10597688      -1.91822203
O       -1.58535835      -0.12825389       1.15894102
H       -0.08404332      -1.00968290       2.26858304
H        0.82591070       1.14650814       0.95781602
H        1.56737071      -0.41224189       0.42332601
H       -0.38057033       1.30485814      -1.23177102
