9
Properties=species:S:1:pos:R:3 -167099.995382772=T pbc="F F F"
C        0.59587328       0.35921488       0.89874523
C       -0.70878674      -0.07489713       0.34184823
C       -0.78903774      -0.47066413      -1.18494680
O       -0.15760573       0.00405388      -2.11606782
O        0.99921629       0.17474588       2.05820726
H        1.28954230       0.88359789       0.12478422
H       -1.07163675      -0.99737114       0.84667023
H       -1.30611075       0.80131589       0.62430623
H       -1.52938675      -1.30643015      -1.34004680
