9
Properties=species:S:1:pos:R:3 -167094.0263766402=T pbc="F F F"
C        0.24950471      -0.89386152       0.79551608
C       -0.79308631      -0.23718851      -0.07189694
C       -0.41637630       0.88818251      -1.07451095
O        0.57656972       1.03581151      -1.72693697
O        0.34128771      -0.80655752       2.05963810
H        1.17399173      -1.32392753       0.24432407
H       -1.25483532      -1.06334853      -0.65367495
H       -1.69559432       0.21638249       0.45151507
H       -1.36057132       1.42424852      -1.14436396
