9
Properties=species:S:1:pos:R:3 -167096.75673257443=T pbc="F F F"
C        0.73485611       0.25378357       0.78142655
C        0.00393309      -0.97417245       0.10444954
C       -0.72879792      -0.55208744      -1.16450949
O       -0.48854991       0.54826058      -1.61793449
O        0.47573910       0.64658658       1.89606457
H        1.47213812       0.68547758       0.07010354
H        0.70717811      -1.58796546      -0.36601547
H       -0.52226891      -1.70562946       0.69676355
H       -1.57269493      -1.20381645      -1.49733749
