9
Properties=species:S:1:pos:R:3 -167097.55959118408=T pbc="F F F"
C        0.85689661      -0.19437485       1.20387364
C        0.16385660       0.91198717       0.20260962
C       -1.06626042       0.26462116      -0.50404039
O       -1.27543043       0.33563816      -1.67408241
O        1.31092762      -1.24092187       0.81952663
H        0.94012961       0.01176415       2.35075066
H       -0.08364841       1.73751718       0.87653764
H        0.90876561       1.10697217      -0.59271239
H       -1.78676644      -0.18402985       0.18261162
