9
Properties=species:S:1:pos:R:3 -167091.18302874468=T pbc="F F F"
C        0.95440032       0.44651652       0.32678859
C       -0.63253071       0.13491851       0.58112959
C       -0.86487071      -1.04513851      -0.36234242
O       -1.01674372      -0.86193450      -1.53667545
O        1.48926433       1.27105453       1.01883760
H        1.67152633       0.07881751      -0.48862943
H       -0.63113671      -0.02824949       1.70469661
H       -1.16251972       1.01644653       0.37323659
H       -0.91169372      -2.03880852       0.13308158
