9
Properties=species:S:1:pos:R:3 -167094.6298797603=T pbc="F F F"
C       -0.14624484       0.26233710       1.40361600
C       -0.31233084      -0.60438992       0.22931998
C        0.12084617      -0.11827491      -1.22113205
O       -0.57335284      -0.24310891      -2.21680306
O        0.89760718       0.67988711       1.81884201
H       -1.15059285       0.69834311       1.75264501
H        0.30279617      -1.56594693       0.53096898
H       -1.31676786      -0.99055592       0.26638498
H        1.03970019       0.40721610      -1.13734705
