9
Properties=species:S:1:pos:R:3 -167095.93487556075=T pbc="F F F"
C       -0.20710339       0.31323147       1.32069049
C       -0.20139239       0.46005447      -0.13021154
C       -0.08245638      -0.83444755      -1.02643055
O       -0.13075539      -0.73099955      -2.19077757
O        0.61918263       0.78544248       2.05098950
H       -1.07590940      -0.35065654       1.63881150
H       -1.23946540       0.89137048      -0.47931954
H        0.55531663       1.16578149      -0.36762954
H       -0.14595339      -1.84230357      -0.52662054
