9
Properties=species:S:1:pos:R:3 -167081.07161025066=T pbc="F F F"
C        0.01513382      -0.84469480       0.91984912
C       -0.28671919       0.49850422       0.24905211
C       -0.15324919       0.44536622      -1.18527191
O        0.47172283       0.98363923      -2.11163293
O       -0.02068018      -1.04377380       2.10847614
H       -0.08240218      -1.79165682       0.40025011
H       -1.31071921       0.55642422       0.59540612
H        0.33990782       1.12749723       0.86909612
H       -1.04672820      -0.11875279      -1.61972892
