9
Properties=species:S:1:pos:R:3 -167097.29328736544=T pbc="F F F"
C       -0.08985509      -0.64603028       1.00612166
C       -0.33776909      -0.45058428      -0.53560237
C        0.78733793       0.36044973      -1.04885638
O        0.68059093       1.54286275      -1.28233738
O       -1.02791610      -0.84954029       1.80416967
H        1.01192893      -0.59165728       1.36713866
H       -0.28689509      -1.54421630      -1.01318038
H       -1.33053411      -0.03264627      -0.57677537
H        1.83475295      -0.06962227      -1.17287938
