9
Properties=species:S:1:pos:R:3 -167092.135386557=T pbc="F F F"
C        0.66625338      -0.68020724       0.79914641
C       -0.74054464      -0.58189524       0.50387441
C       -1.09693165       0.49219978      -0.44090661
O       -0.43659864       0.54726378      -1.47397563
O        1.51908740       0.16006477       0.67476341
H        0.99873839      -1.61428226       1.16624742
H       -1.16403465      -1.46974425       0.06973740
H       -1.31298565      -0.34503323       1.37650742
H       -1.75604966       1.37034180      -0.19346060
