9
Properties=species:S:1:pos:R:3 -167096.2858373182=T pbc="F F F"
C       -0.17433414      -0.33000095       1.28088520
C        0.90112688      -0.04566794       0.23707418
C        0.49179188       0.99390307      -0.83097684
O       -0.17973714       0.66362407      -1.80548785
O       -0.95822815      -1.24436297       1.15418120
H       -0.27846114       0.37017106       2.13465922
H        1.80480590       0.44147906       0.64327119
H        1.23501689      -0.93410696      -0.17959182
H        0.78949488       1.97799609      -0.44141283
