9
Properties=species:S:1:pos:R:3 -167086.73811555706=T pbc="F F F"
C        0.69815849       0.08788078       1.00095706
C        0.68021349      -0.23739222      -0.55232697
C       -0.81838154      -0.06320322      -1.00610798
O       -1.08061254       1.12836580      -1.07778698
O        0.56721849      -0.94512523       1.59164707
H        0.57355149       1.16421080       1.33585406
H        1.16580050       0.55073679      -1.09098798
H        1.25076350      -1.12979324      -0.75461197
H       -1.50988955      -0.96055823      -1.00779298
