9
Properties=species:S:1:pos:R:3 -167086.6724138003=T pbc="F F F"
C        0.02623889       0.06721437       1.20482938
C       -0.34620011      -0.56638664      -0.09429164
C       -0.19462711       0.13839838      -1.48579766
O        0.84809591       0.43194938      -1.95909067
O       -0.40374411      -0.06129063       2.33284340
H        0.97747491       0.50803238       1.02719438
H        0.47747290      -1.27982465      -0.44161064
H       -1.32909213      -1.04643964       0.10411837
H       -1.05092612       0.23128138      -2.15327367
