9
Properties=species:S:1:pos:R:3 -167091.5654014013=T pbc="F F F"
C       -0.02271587       0.17048117       1.25835426
C        0.53149914      -0.53330784      -0.11599677
C       -0.18517787      -0.00230983      -1.25189079
O       -0.99199988      -0.61231184      -1.87421780
O        0.67165715       0.93741418       1.95738427
H       -1.00703988      -0.24919484       1.54508626
H        1.48185816      -0.00371683      -0.24978777
H        0.66284015      -1.59204186       0.17474324
H        0.09329914       1.03296119      -1.48575979
