9
Properties=species:S:1:pos:R:3 -167088.8091028159=T pbc="F F F"
C        0.89422565      -0.20151931       1.16345836
C       -0.03355037      -0.87360532       0.05118434
C       -0.29913037      -0.03096531      -1.18529368
O       -1.28705939       0.17971870      -1.77176269
O        0.73643865       0.86383671       1.72844437
H        1.59058666      -0.93459132       1.68316237
H        0.63255465      -1.53186833      -0.54898167
H       -0.89993738      -1.38864533       0.54560835
H        0.72932765       0.46314670      -1.34174968
