9
Properties=species:S:1:pos:R:3 -167088.2468281491=T pbc="F F F"
C       -0.92195128      -1.01930429       0.77026381
C       -0.73483927      -0.06796628      -0.53959921
C        0.53210075       0.76778074      -0.42673521
O        1.01630376       1.50266275      -1.30572423
O        0.07187074      -1.21126330       1.46827382
H       -2.05460930      -1.43032530       0.95679681
H       -0.91051828      -0.69501429      -1.42278623
H       -1.71803129       0.51662073      -0.55630521
H        0.80452875       0.78810874       0.77709381
