9
Properties=species:S:1:pos:R:3 -167092.50522723584=T pbc="F F F"
C       -0.73644031      -0.15430465       1.09542810
C       -0.20362830      -0.54278866      -0.27595092
C        0.78299071       0.44417436      -0.92682093
O        0.65446771       0.66742436      -2.13247095
O       -0.51613031      -0.43244266       2.25915012
H       -1.56071633       0.62191436       0.95270110
H        0.42780971      -1.49820767      -0.31244392
H       -0.96572732      -0.45279066      -1.00187293
H        1.77341873       0.61121636      -0.37075092
