9
Properties=species:S:1:pos:R:3 -167096.34976660882=T pbc="F F F"
C        0.05629927       0.03321021       1.44839556
C       -0.67452374      -0.46192880       0.26187754
C       -0.03753573      -0.69591080      -1.13586649
O       -0.19391774       0.04124021      -2.08281150
O        0.80923928       1.02694923       1.53819556
H       -0.10974073      -0.60452380       2.35241257
H       -1.04161075      -1.50263981       0.53480854
H       -1.53374776       0.14136421       0.03085053
H        0.72752428      -1.59637282      -1.11398249
