9
Properties=species:S:1:pos:R:3 -167091.1801062571=T pbc="F F F"
C       -0.79418799      -0.56993860       0.85316142
C       -0.84674599       0.55756242      -0.17894659
C        0.27151703       0.64808242      -1.14722461
O        1.19890405      -0.12901359      -1.25736361
O        0.05683003      -0.50150560       1.70076544
H       -1.54828200      -1.36321961       0.72422642
H       -1.75640001       0.96400943      -0.49859960
H       -0.50522698       1.43954444       0.42435042
H        0.18591103       1.39721744      -2.05503963
