9
Properties=species:S:1:pos:R:3 -167093.44731699114=T pbc="F F F"
C        0.78471040       0.08867177       0.88905260
C       -0.39825862       0.59020078       0.00467059
C       -0.45481062      -0.28355324      -1.17496243
O       -1.21818664      -1.29213726      -1.34852744
O        1.27896241       0.92237878       1.61388261
H        1.01974240      -0.98973925       0.92668460
H       -1.26045764       0.56567278       0.59650660
H       -0.00001162       1.54557379      -0.27106042
H        0.09010839       0.03982877      -2.11484245
