9
Properties=species:S:1:pos:R:3 -167082.43146858425=T pbc="F F F"
C        0.33370269       0.50123491       1.19419909
C       -0.35371532      -0.42878211       0.12995307
C       -0.16820732       0.04079490      -1.34727995
O       -0.56657333      -0.51135511      -2.31144297
O        0.73250670       0.39478491       2.32980611
H        0.67272570       1.30869792       0.54267808
H       -0.18477432      -1.50605412       0.06108407
H       -1.36057334      -0.29013710       0.61091708
H        0.48024169       0.98912592      -1.23073695
