9
Properties=species:S:1:pos:R:3 -167090.23213901627=T pbc="F F F"
C        0.86075224      -0.05481447       0.68421567
C       -0.28255678      -0.68564048       0.01343566
C       -1.18121479       0.09434553      -0.93168536
O       -1.23364980       1.29460855      -1.02417236
O        1.80624926      -0.67709248       1.20664168
H        1.22175425       1.06931155       0.70027567
H       -0.08759078      -1.78717250      -0.23782635
H       -1.07938079      -0.78425548       0.79194667
H       -1.96230381      -0.60519748      -1.36371337
