9
Properties=species:S:1:pos:R:3 -167098.17093082925=T pbc="F F F"
C        0.74672438       0.23772682       0.77803635
C       -0.00207863      -0.94383120       0.11227134
C       -0.71841764      -0.56002519      -1.17703068
O       -0.50575364       0.55568183      -1.63258069
O        0.47526038       0.64368183       1.90725937
H        1.50858740       0.65990683       0.09732634
H        0.74478238      -1.64860121      -0.31807066
H       -0.54775764      -1.72610721       0.76160035
H       -1.53395566      -1.24438220      -1.48624469
