9
Properties=species:S:1:pos:R:3 -167090.60310648376=T pbc="F F F"
C        0.35481384      -0.69360464       1.08106523
C        0.59083284      -0.49731063      -0.35644380
C        0.24665783       0.82878939      -1.23665981
O       -0.54509718       1.73495540      -1.01745381
O       -0.58528118      -1.38867065       1.53643723
H        0.99620685      -0.00415563       1.75895024
H        1.73238086      -0.56619064      -0.65019380
H        0.11538283      -1.34320265      -1.03639581
H        0.89938884       0.72952939      -2.21225083
