9
Properties=species:S:1:pos:R:3 -167096.3168772351=T pbc="F F F"
C       -0.06876930      -0.87381266       0.90137845
C        0.72765971       0.06852435      -0.01696156
C       -0.20739931       0.88888137      -0.86642058
O       -0.26123531       0.79259737      -2.06613460
O       -0.14507730      -0.84632066       2.05669447
H       -0.65244831      -1.70172868       0.36828844
H        1.38722172       0.47562036       0.73090245
H        1.22709072      -0.52314366      -0.83202458
H       -0.88921532       1.60655138      -0.33162357
