9
Properties=species:S:1:pos:R:3 -167090.97753802087=T pbc="F F F"
C        0.93471053       0.17499255       1.06816023
C       -0.20299249      -0.57814646       0.12876421
C       -0.15827249      -0.16762045      -1.29001781
O       -1.09370750      -0.08783145      -2.07753082
O        0.55816053       0.65112456       2.16142125
H        2.09140055       0.05351055       0.71780422
H       -0.08532348      -1.73516248       0.27914822
H       -1.23752650      -0.37311146       0.54695522
H        0.90305053      -0.08899445      -1.76686282
