9
Properties=species:S:1:pos:R:3 -167098.55702204604=T pbc="F F F"
C        0.72431278      -0.33880817       0.84469155
C        0.41000978       0.54058384      -0.40653147
C       -0.62861424      -0.08602817      -1.26771448
O       -1.84191126      -0.11073217      -1.03452548
O        1.36274279      -0.01268317       1.81824957
H        0.39718478      -1.38869919       0.64523055
H        0.09557177       1.53315286       0.08555054
H        1.31828279       0.77821585      -0.99942748
H       -0.22767024      -0.34216417      -2.29226150
