9
Properties=species:S:1:pos:R:3 -167089.96037770237=T pbc="F F F"
C        0.89036377      -0.12022104       1.12764257
C        0.49407976       0.79268698      -0.17287145
C       -0.42478825       0.25011897      -1.34251947
O       -0.91407426      -0.83607705      -1.65633348
O        0.05865376      -0.05195804       2.03002358
H        1.78340379      -0.77960605       1.15264657
H       -0.30675925       1.50594599       0.21198055
H        1.34348078       1.31653299      -0.69302246
H       -0.67043226       1.06582798      -1.98548449
