9
Properties=species:S:1:pos:R:3 -167098.880801593=T pbc="F F F"
C       -0.33215831       0.55213170       1.32185187
C       -0.33627031       0.66465670      -0.16389516
C       -0.09608630      -0.54558532      -1.00280017
O        0.27582070      -0.57647232      -2.15968219
O        0.44604770      -0.06093331       2.01385888
H       -1.14046832       1.09402571       1.87093588
H       -1.27920633       1.15244971      -0.35389316
H        0.38713170       1.40587771      -0.45341316
H       -0.32108431      -1.52816334      -0.59673016
