9
Properties=species:S:1:pos:R:3 -167093.92556933375=T pbc="F F F"
C       -0.19558669       0.19822568       1.38734948
C       -1.12096470       0.07311967       0.12452046
C       -0.31050669       0.02878467      -1.17827357
O        0.54881633      -0.75549234      -1.55781957
O        0.96992333       0.47142168       1.26541948
H       -0.63544569      -0.09075633       2.32469750
H       -1.94141372      -0.75183934       0.23351146
H       -1.67709471       0.93134069       0.05369946
H       -0.47644469       0.84606569      -1.94338158
