9
Properties=species:S:1:pos:R:3 -167096.72934376096=T pbc="F F F"
C        0.71152490      -0.87127473       0.98965547
C       -0.59194812      -0.32696172       0.43782246
C       -0.43885012       0.55522329      -0.74404856
O       -1.48526014       0.82021830      -1.34043657
O        1.78397292      -0.24747672       0.70265147
H        0.73328390      -1.60504774       1.74195749
H       -1.29499614      -1.12945374       0.11796246
H       -0.96833013       0.36745329       1.19468648
H        0.59078690       0.93347130      -1.06997056
