9
Properties=species:S:1:pos:R:3 -167097.3235774781=T pbc="F F F"
C        1.04413317      -0.46685549       0.23496462
C       -0.31640185       0.11891352       0.69025462
C       -1.35548987       0.45721053      -0.41838940
O       -1.18692086       0.93807154      -1.50096841
O        1.79820519      -1.04358550       1.03674663
H        1.17387618      -0.33480149      -0.91150640
H       -0.81127386      -0.55623949       1.37789064
H       -0.11317485       1.12783354       1.04404463
H       -2.47633989       0.13674852      -0.17762839
