9
Properties=species:S:1:pos:R:3 -167094.8327616557=T pbc="F F F"
C       -0.57913941      -0.73931722       0.94306842
C        0.34168560       0.33067180       0.22899940
C       -0.06149840       0.59154880      -1.20196462
O        0.77939861       0.84658281      -2.11365264
O       -0.50358341      -1.01858322       2.13843244
H       -1.39996443      -1.34763723       0.28955741
H        0.31092460       1.26538182       0.96516742
H        1.42174062       0.05203079       0.25403041
H       -1.15051542       0.58219680      -1.54605263
