9
Properties=species:S:1:pos:R:3 -167087.18978129042=T pbc="F F F"
C       -0.06858243      -0.22158942       0.88577263
C       -0.36583044      -0.74664843      -0.46362940
C       -0.05017043       0.29913859      -1.36642541
O        0.67657258       1.23926961      -1.08983041
O       -0.25880944      -0.62210943       1.99833265
H        0.46949557       0.69470660       0.76037362
H        0.38957257      -1.60035444      -0.63084640
H       -1.36261546      -1.12888943      -0.80774540
H       -0.35680644       0.20660759      -2.49696543
