9
Properties=species:S:1:pos:R:3 -167096.61799943374=T pbc="F F F"
C       -0.20261272      -0.03780214       1.01044274
C       -0.52909072      -0.55160715      -0.40482228
C        0.44619530       0.09355286      -1.34399030
O        0.39864030       1.28709588      -1.29223030
O       -0.14377971      -0.83521616       1.94547676
H        0.20998029       1.05110288       1.14242574
H       -0.55688372      -1.63889217      -0.34760828
H       -1.58709374      -0.22813214      -0.61677329
H        1.28867131      -0.45166015      -1.75389631
