9
Properties=species:S:1:pos:R:3 -167091.0018873255=T pbc="F F F"
C       -0.04581764      -0.80676079       0.88632867
C       -0.26900665       0.54839723       0.32151166
C       -0.21245264       0.39159823      -1.22366437
O        0.49868637       0.95318924      -2.09345939
O        0.00677336      -1.07631380       2.10593069
H        0.32259136      -1.63605581       0.27874366
H       -1.28573366       0.97475124       0.47590466
H        0.36680737       1.23321324       0.75339466
H       -1.14748166      -0.20423478      -1.51755738
