9
Properties=species:S:1:pos:R:3 -167100.04581012612=T pbc="F F F"
C        0.59078995      -0.63065122       0.88894474
C        0.12417095       0.69695780       0.26988973
C       -0.64617907       0.41919080      -1.06055830
O       -1.82399609       0.52202880      -1.16110430
O        1.76514797      -0.97320623       1.04803074
H       -0.27558806      -1.17639923       1.33198475
H       -0.54496107       1.07900881       1.00554774
H        0.92003296       1.47903881       0.07426472
H        0.01550494      -0.00186921      -1.78739531
