9
Properties=species:S:1:pos:R:3 -167089.9568171857=T pbc="F F F"
C        1.13557655       0.61402220       0.39325763
C       -0.18522248      -0.13482782       0.37463263
C       -1.26795250       0.02309519      -0.77514839
O       -1.61574050      -1.01749583      -1.28888140
O        1.92653656       0.57904319       1.29350265
H        1.22802955       1.35808421      -0.39533138
H       -0.00037147      -1.13861083       0.29352163
H       -0.71655049      -0.18017682       1.35946665
H       -1.66207650       0.93858920      -1.24457839
