9
Properties=species:S:1:pos:R:3 -167098.3807473612=T pbc="F F F"
C        0.82018142       0.18842070       0.87100622
C       -0.18489960       0.85407471      -0.15788080
C       -0.80309861      -0.32416131      -0.87168381
O       -0.33480160      -0.83896232      -1.90184683
O        0.49156741       0.19774370       2.04903524
H        1.79422044      -0.33658031       0.48490421
H       -0.90397461       1.35074672       0.46730121
H        0.19967741       1.49617772      -1.03148982
H       -1.57974462      -0.88682032      -0.36877480
