9
Properties=species:S:1:pos:R:3 -167094.081931343=T pbc="F F F"
C        0.08074690       0.59498441       1.26899854
C       -0.94359211       0.04828440       0.24798353
C       -0.18277710      -0.50837661      -0.90870449
O       -0.18677510      -0.16366961      -2.05106251
O        1.16472592       0.06708840       1.44439555
H       -0.47910611       1.46900142       1.83783455
H       -1.21900112      -0.87887662       0.81285054
H       -1.81750613       0.73361141       0.25395853
H        0.44486991      -1.39706063      -0.51905549
