9
Properties=species:S:1:pos:R:3 -167092.09124250468=T pbc="F F F"
C       -0.84346434       0.11218926       0.86575849
C       -0.51950333      -0.44726275      -0.44577354
C        0.87695669       0.04871626      -0.71769854
O        1.14754370       0.80618827      -1.60666056
O       -0.72441234      -0.53802275       1.87130150
H       -1.05652934       1.20452628       0.84212749
H       -0.48457333      -1.52324077      -0.30060153
H       -1.24101534      -0.23279675      -1.29421655
H        1.85356571      -0.29486375       0.09747147
