9
Properties=species:S:1:pos:R:3 -167098.9747152754=T pbc="F F F"
C        0.33319091      -0.03426392       1.36058318
C       -0.76937511       0.07157408       0.34191116
C       -0.19672610       0.02723408      -1.03736786
O       -0.79776711      -0.60171193      -1.88164488
O        1.38887793       0.55582709       1.28071618
H        0.25411791      -0.86433593       2.15639819
H       -1.32424912      -0.81392493       0.29280816
H       -1.42806912       0.94170410       0.46696616
H        0.65279692       0.69626509      -1.29854487
