9
Properties=species:S:1:pos:R:3 -167088.19617859734=T pbc="F F F"
C        0.84567153      -0.06706948       0.90391724
C        0.61895952      -0.08135348      -0.73352879
C       -1.00918050      -0.01525948      -0.90669079
O       -1.50597451       1.06528654      -1.03151880
O        1.06095253      -0.92157549       1.68679325
H        1.01811953       0.99104254       1.26213324
H        1.21134754       0.66470153      -1.10892180
H        0.96933053      -1.04319750      -1.08481380
H       -1.55894751      -0.94440649      -0.70105279
