9
Properties=species:S:1:pos:R:3 -167095.8116369208=T pbc="F F F"
C        0.00694266      -0.50123528       1.30411562
C        0.82489967       0.18399973       0.20194660
C        0.15176666       0.37278174      -1.14178642
O       -0.32065535       1.51594176      -1.42852343
O       -0.56928035      -1.56855630       1.07523662
H       -0.16206435      -0.02290827       2.29979464
H        1.01652367       1.18535275       0.68257061
H        1.76387669      -0.41889828      -0.01387740
H       -0.20607435      -0.56989428      -1.69893943
