9
Properties=species:S:1:pos:R:3 -167089.06436557422=T pbc="F F F"
C       -0.28524770      -0.36812711       0.93712950
C        0.77341732       0.46751091       0.30742049
C        0.32108031       0.90908992      -1.01090454
O       -0.61927870       0.46510891      -1.61732755
O       -0.15343270      -1.41546812       1.42168550
H       -1.37724772      -0.00681210       0.61606549
H        1.13387633       1.24679392       1.01144450
H        1.82730234       0.16072090       0.12025948
H        1.04395933       1.67446393      -1.42476454
