9
Properties=species:S:1:pos:R:3 -167087.03858140734=T pbc="F F F"
C        1.21289182      -0.77318369       0.36761874
C       -0.27599221      -0.62801869      -0.07442027
C       -0.66032421       0.68492534      -0.81604528
O       -1.82301023       0.99023834      -0.92258929
O        1.57344483      -0.27155868       1.41601175
H        1.76349483      -1.53303370      -0.05643927
H       -0.43485021      -1.47779470      -0.88310029
H       -0.92686522      -1.01257869       0.80784574
H        0.26586880       1.14602734      -1.47383130
