9
Properties=species:S:1:pos:R:3 -167092.3355521123=T pbc="F F F"
C       -0.22650789       0.39119689       1.35887719
C       -0.84563090      -0.20476912       0.07633817
C        0.03283512      -0.10330412      -1.06625285
O        0.09244812      -0.78568813      -2.01825787
O        0.90426613       0.66285590       1.66991620
H       -1.07040190       0.57277589       2.19984821
H       -1.31614291      -1.14468214       0.23189717
H       -1.64934991       0.63371690      -0.14375583
H        0.59212713       0.89788690      -1.15272785
