9
Properties=species:S:1:pos:R:3 -167097.31105043576=T pbc="F F F"
C       -0.33804280      -0.46894229       0.95349980
C        0.55702621       0.71439873       0.42212579
C        0.44645321       0.51941373      -1.09527723
O       -0.62529881       0.79517773      -1.65769324
O        0.02961920      -1.52012531       1.39050981
H       -1.38907482       0.00771672       0.91655380
H       -0.04604580       1.58235375       0.73790380
H        1.55497623       0.60406073       0.84284080
H        1.41077223       0.20413472      -1.59496324
