9
Properties=species:S:1:pos:R:3 -167088.13324777782=T pbc="F F F"
C        1.06652559       0.21482120       0.97659877
C       -0.12336343       0.89483121       0.49892876
C       -0.57995144       0.01982520      -0.79628726
O       -1.73544246      -0.13594080      -1.17988527
O        1.36992160      -0.92806482       0.54293376
H        1.72205760       0.82005521       1.73200478
H       -0.86343944       1.11844822       1.27488578
H        0.30970658       1.96968123       0.42672976
H        0.30806858      -0.47013981      -1.41233527
