9
Properties=species:S:1:pos:R:3 -167096.51585376024=T pbc="F F F"
C        0.62891665       1.03212094       0.47916794
C       -0.32425737      -0.14673908       0.59583094
C       -1.02638738      -0.44539508      -0.72005208
O       -1.01184738      -1.50470810      -1.40439609
O        1.68321267       1.09196194       1.07236795
H        0.29873564       1.76987596      -0.14983607
H        0.26939364      -0.98284509       1.06191995
H       -1.11566838       0.05129993       1.26360995
H       -1.51402239       0.47340293      -1.13245709
