9
Properties=species:S:1:pos:R:3 -167096.87894225566=T pbc="F F F"
C        0.94082391      -0.84570275       0.44874920
C        0.65791390      -0.24390674      -0.90352983
C       -0.47831412       0.81972028      -0.61074782
O       -1.63901914       0.43643827      -0.44757882
O        0.57170690      -0.19783074       1.41798321
H        1.58065192      -1.74355877       0.51215620
H        1.64848792       0.26450327      -1.14502683
H        0.48761490      -0.97349375      -1.61036184
H       -0.11842811       1.87919930      -0.47072482
