9
Properties=species:S:1:pos:R:3 -167095.04570882343=T pbc="F F F"
C       -0.12021773       0.37483111       1.26479866
C       -0.11492573      -0.68951391       0.10145964
C        0.14986428      -0.07240890      -1.23490538
O       -0.69300474      -0.23898690      -2.13547540
O        0.77809829       0.58746612       2.03884168
H       -1.07180974       1.05095712       1.31761666
H        0.83999829      -1.26976092       0.08734764
H       -1.07750274      -1.25466392       0.04538764
H        0.97422229       0.55188411      -1.48070139
