9
Properties=species:S:1:pos:R:3 -167098.55488623164=T pbc="F F F"
C        0.06810090       0.16815800       1.17309797
C        0.86207591      -0.29955700      -0.11827206
C       -0.11785610      -0.17352500      -1.25370608
O       -0.98828512      -0.94729702      -1.56865708
O        0.24407390       1.24672402       1.74125098
H       -0.62156011      -0.63693101       1.61219997
H        1.86160593       0.18381100      -0.29974706
H        0.96101291      -1.47583602       0.11914995
H       -0.06205010       0.80751001      -1.80276109
