9
Properties=species:S:1:pos:R:3 -167093.82871433074=T pbc="F F F"
C        0.51493380       0.47855762       0.96548381
C        0.64830381      -0.47666840      -0.17453421
C       -0.60209621      -0.63479340      -1.07886322
O       -1.70435423      -0.93225641      -0.72800722
O        1.19662782       1.50887064       0.99489381
H       -0.28126421       0.42213762       1.76579883
H        1.50523982      -0.32442340      -0.90181222
H        0.68476581      -1.45164642       0.47659480
H       -0.53216921      -0.26147239      -2.14812724
