9
Properties=species:S:1:pos:R:3 -167092.92750940772=T pbc="F F F"
C        0.00670350      -0.09255937       0.93348831
C        0.32045751       0.83736165      -0.26322071
C        0.20997150      -0.08046037      -1.34000773
O       -0.84893151      -0.71649238      -1.45072473
O        0.38517851       0.10174463       2.06803933
H       -0.63140151      -0.95134038       0.73486631
H       -0.66106451       1.43524466      -0.29715071
H        1.23579852       1.40556466      -0.11406671
H        1.02121952      -0.04318137      -2.14639874
