9
Properties=species:S:1:pos:R:3 -167094.68245831848=T pbc="F F F"
C        0.70201547       0.48488389       1.14183381
C       -0.07630854       0.89503590      -0.20073921
C       -0.41997655      -0.31400312      -0.91469123
O       -1.60853257      -0.49262013      -1.20754123
O        1.41497348      -0.51859713       1.17853181
H        0.60745447       1.22242490       2.00050682
H       -0.96209356       1.50724591       0.18951579
H        0.66545147       1.65219991      -0.80955322
H        0.31151446      -1.02480614      -1.23444923
