9
Properties=species:S:1:pos:R:3 -167099.85926200365=T pbc="F F F"
C       -0.25596911       0.37540778       1.34161358
C       -1.03290213      -0.15104423       0.12765156
C       -0.09288511       0.05947278      -1.04396046
O        0.30806690      -0.79404624      -1.81413747
O        0.97629691       0.51068379       1.41002058
H       -0.90368212       0.85237979       2.21409660
H       -1.40551113      -1.23793624       0.17808856
H       -1.91430414       0.43726178       0.01214656
H        0.29204790       1.06587180      -1.05473346
