9
Properties=species:S:1:pos:R:3 -167089.9962091698=T pbc="F F F"
C       -0.62136768      -0.50214410       0.95743303
C        0.27055834       0.66809092       0.67450903
C        0.67470034       0.89321592      -0.86184500
O       -0.06707167       0.66200892      -1.71410702
O       -0.27438367      -1.66055613       0.98199803
H       -1.66094170      -0.22032610       1.25824804
H        0.25271434       1.62337793       1.14088203
H        1.29008736       0.40084991       1.08232003
H        1.68076936       1.43249793      -1.03176300
