9
Properties=species:S:1:pos:R:3 -167086.51577303212=T pbc="F F F"
C       -0.28784723       0.18749859       1.33792698
C       -0.15118022      -0.53434042      -0.14294105
C        1.00677380      -0.02541141      -0.99383706
O        0.77239679       0.46509860      -2.11848008
O       -1.28842024      -0.10667741       1.94933099
H        0.60207979       0.91688660       1.51718398
H       -0.01991222      -1.68705944      -0.04320705
H       -1.16431124      -0.54753642      -0.50068005
H        2.01175181       0.06166059      -0.68382306
