9
Properties=species:S:1:pos:R:3 -167087.3411397159=T pbc="F F F"
C        0.23470085      -0.14333493       1.30694874
C        0.74616286       0.21453808      -0.04991828
C       -0.16160615       0.21949308      -1.29742630
O       -0.26410415      -0.79037994      -1.90209531
O       -0.50751916       0.52220308       1.99363476
H        0.34924186      -1.31594195       1.41141675
H        1.06268587       1.24246809      -0.07210728
H        1.56736688      -0.35324893      -0.51784729
H       -0.48783216       1.22161409      -1.79327331
