9
Properties=species:S:1:pos:R:3 -167098.85239215943=T pbc="F F F"
C       -0.26352020      -0.68717657       0.96804487
C        0.03639280       0.63987546       0.19336686
C        0.11453880       0.34392345      -1.28282116
O        1.17522982       0.40348545      -1.81668217
O       -1.07860022      -0.67937657       1.92670889
H        0.21390781      -1.59449858       0.51628487
H       -0.68664721       1.36074347       0.52656887
H        1.10414482       1.04371146       0.44086687
H       -0.82441421       0.03680445      -1.78432317
