9
Properties=species:S:1:pos:R:3 -167091.01761589522=T pbc="F F F"
C       -0.30795793      -0.07950080       1.34618142
C       -0.19676293      -0.47858981      -0.16761261
C        0.92207309       0.25334521      -1.02059263
O        0.88571209       0.30038221      -2.21891565
O       -1.32292695       0.00104720       2.07899943
H        0.65769409       0.17035821       1.80318242
H        0.40309008      -1.43850082      -0.08290261
H       -1.02963294      -0.63568881      -0.83413062
H        1.93842411       0.74847922      -0.54657262
