9
Properties=species:S:1:pos:R:3 -167085.1061296964=T pbc="F F F"
C       -0.33485740      -0.16275124       1.26883323
C       -0.17563639      -0.47974325      -0.24435280
C       -0.03684739       0.42692577      -1.44554782
O        0.85794962       1.23671278      -1.68234283
O       -0.30889740      -1.00999626       2.10521924
H       -0.92673141       0.88212078       1.37775723
H        0.67423662      -1.21972426      -0.53194781
H       -1.13075441      -1.10053126      -0.40030480
H       -0.81351041       0.40671877      -2.14328283
