9
Properties=species:S:1:pos:R:3 -167098.41709577542=T pbc="F F F"
C       -0.22391463      -0.72752051       1.15339474
C       -0.96252364      -0.56748451      -0.20678928
C       -0.42842563       0.55298351      -1.17777830
O        0.67044939       1.00753552      -1.10382730
O        0.85414539      -0.29552151       1.33579675
H       -0.93023764      -1.24512452       1.87360576
H       -0.78302064      -1.54375553      -0.79411929
H       -2.04343966      -0.48396451      -0.03347228
H       -1.21181965       0.80778851      -1.97500231
