9
Properties=species:S:1:pos:R:3 -167091.82442508158=T pbc="F F F"
C       -0.46092826      -0.12120559       0.89998619
C        0.80340676      -0.43656159       0.06703718
C        0.78871576       0.26578342      -1.25185884
O       -0.04771925       1.16338743      -1.46534985
O       -0.97576327      -0.84469860       1.73149221
H       -0.96821427       0.83167043       0.57170419
H        1.73301478      -0.46100859       0.78860019
H        0.61837176      -1.60490061      -0.22283983
H        1.39130177      -0.34698359      -1.96984986
