9
Properties=species:S:1:pos:R:3 -167088.95257961407=T pbc="F F F"
C        1.04004864      -0.06846091       0.79668395
C       -0.43121938       0.29364609       0.76851195
C       -1.00062839       0.91978910      -0.48953708
O       -1.08246540       0.19226109      -1.43436109
O        1.43651365      -1.23807193       0.44036294
H        1.75363765       0.66974910       0.98289995
H       -0.89476739      -0.71842093       0.97247995
H       -0.64618739       1.01811910       1.48521996
H       -1.16660040       1.99531712      -0.47281308
