9
Properties=species:S:1:pos:R:3 -167095.8995753866=T pbc="F F F"
C       -0.82354700      -0.34467813       0.79797041
C        0.19322601       0.80788189       0.28816440
C        0.96190903       0.25119188      -0.92071362
O        0.38757602       0.14612488      -1.99147064
O       -0.68421500      -0.80143114       1.85379443
H       -1.65894402      -0.52675214       0.12253540
H       -0.42441500       1.51032090      -0.20633861
H        0.89866903       1.17973689       1.04347041
H        1.94440404      -0.26930613      -0.74428762
