9
Properties=species:S:1:pos:R:3 -167091.21733519947=T pbc="F F F"
C        0.74139527      -0.17192511       1.22224602
C       -0.46810676       0.19921590       0.31522801
C       -0.26313675       0.91406591      -1.12515902
O       -0.73919276       0.36538190      -2.17352804
O        0.76618427      -1.23725613       1.77631103
H        1.67192728       0.45203390       1.34061302
H       -1.03379177      -0.74312712       0.29334200
H       -1.12098777       0.94239591       0.79353001
H       -0.06639775       1.97740093      -1.03272702
