9
Properties=species:S:1:pos:R:3 -167102.11825555985=T pbc="F F F"
C       -0.10649984       0.37449519       1.21258761
C       -0.18654384      -0.77202683       0.22405859
C        0.19413817      -0.26328082      -1.26006143
O       -0.69726385      -0.08846082      -2.10047945
O        0.80022418       0.69859519       1.95083562
H       -1.03303385       0.94835620       1.17133461
H        0.52616618      -1.55960685       0.50855060
H       -1.20721485      -1.15005984       0.05379259
H        1.25767819      -0.05378382      -1.46128643
