9
Properties=species:S:1:pos:R:3 -167095.18338225211=T pbc="F F F"
C       -0.21114137      -0.18903654       1.31623896
C        0.10867363      -0.85935955      -0.08412006
C        0.85845765       0.02349246      -0.90607207
O        0.54360064       0.62212847      -1.92774309
O       -1.25832239       0.32228847       1.61316097
H        0.66893964      -0.00610554       1.95729598
H        0.67961164      -1.79548457       0.09501994
H       -0.81951838      -1.31397056      -0.56580307
H        1.81267766       0.33033047      -0.37605006
