9
Properties=species:S:1:pos:R:3 -167098.73375046125=T pbc="F F F"
C        1.01336332      -0.13151331       1.05010052
C        0.83415732       0.02260169      -0.42310250
C       -0.54318170      -0.34436132      -0.85883251
O       -1.19208971       0.49127370      -1.46827452
O       -0.01362469      -0.11414131       1.69032754
H        2.00615934      -0.00680831       1.52686853
H        0.94105232       1.13744371      -0.58522050
H        1.62328233      -0.45321232      -1.07406351
H       -0.96547171      -1.26574433      -0.63131351
