9
Properties=species:S:1:pos:R:3 -167090.99364850883=T pbc="F F F"
C        0.34095703       0.69072196       1.22336952
C        0.56780903       0.60322296      -0.35949751
C       -0.59343499       0.08438295      -1.16735252
O       -0.66485799      -1.01358607      -1.68714253
O        0.39668303      -0.28215605       1.95060853
H       -0.22690498       1.69948798       1.53740852
H        0.66527503       1.60548298      -0.58391851
H        1.56962805       0.08170495      -0.35173651
H       -1.50646000       0.76617796      -1.16965952
