9
Properties=species:S:1:pos:R:3 -167096.58067270866=T pbc="F F F"
C       -0.36924750      -0.62282510       0.93693800
C        0.61196852       0.38242191       0.35632399
C        0.21123751       0.56441892      -1.02967104
O        0.71018052       0.07433891      -2.05500106
O       -1.09959551      -0.38244910       1.82514401
H       -0.59404950      -1.54138612       0.34936499
H        0.53331852       1.37568093       0.84165799
H        1.61800454       0.08641091       0.40574999
H       -0.78218151       1.11122693      -1.08730704
