9
Properties=species:S:1:pos:R:3 -167090.11726317185=T pbc="F F F"
C        1.03773538      -0.75589312       0.58859088
C       -0.26584664      -0.46103011      -0.02267913
C       -0.46793464       0.62168390      -1.05765815
O       -1.49744866       1.15991991      -1.30170516
O        1.22524839      -0.60289812       1.74200990
H        1.91027940      -1.00240912       0.01760187
H       -0.65827165      -1.37276713      -0.43710514
H       -1.09613865      -0.37441611       0.66854288
H        0.54501737       0.99666491      -1.38185516
