9
Properties=species:S:1:pos:R:3 -167097.726395297=T pbc="F F F"
C       -0.14310829      -0.36478698       1.20339635
C       -0.65926330      -0.27810898      -0.26038167
C        0.21623072       0.46889603      -1.43394169
O        1.38768274       0.17571603      -1.71172770
O       -0.83125430      -0.00182497       2.16295537
H        0.82369073      -0.81795799       1.38858936
H       -0.74523830      -1.37844500      -0.54341568
H       -1.60520931       0.27708703      -0.19084767
H       -0.32508729       1.23132605      -1.97025270
