9
Properties=species:S:1:pos:R:3 -167091.8078074872=T pbc="F F F"
C        1.02591420      -0.01878612       0.50329297
C       -0.35288582      -0.57883613       0.35190997
C       -1.29137584      -0.06797512      -0.89221406
O       -1.28448684       1.15586590      -1.12840706
O        1.85758922      -0.54329812       1.16391698
H        1.34354721       0.78700090      -0.25016904
H       -0.26442382      -1.63385614       0.49663297
H       -1.03579084      -0.18456612       1.12494498
H       -1.77632585      -0.76532013      -1.49429207
