9
Properties=species:S:1:pos:R:3 -167096.00598006876=T pbc="F F F"
C        0.15703867      -0.80940390       1.21167129
C        0.27998967       0.60811812       0.54096828
C        0.04935767       0.46842412      -1.02191275
O        0.30077368       1.36195514      -1.72498276
O       -0.74494534      -1.59857191       1.03079729
H        0.85792568      -1.06453091       2.03057431
H       -0.50218534       1.24127013       0.95648729
H        1.36382569       0.97417313       0.71137128
H       -0.46155434      -0.57640290      -1.38184475
