9
Properties=species:S:1:pos:R:3 -167093.73380451265=T pbc="F F F"
C        0.44966299      -0.51610375       1.27167152
C       -0.76818503      -0.33100175       0.36585551
C       -0.29093503       0.56187127      -0.86325652
O       -1.03970704       1.04113128      -1.67235253
O        1.60178601      -0.77759676       0.90770852
H        0.27577298      -0.45776275       2.41692854
H       -1.10616004      -1.37677577       0.38293751
H       -1.60868905       0.24265126       0.99133852
H        0.77517599       0.80563827      -0.87485552
