9
Properties=species:S:1:pos:R:3 -167096.22022263063=T pbc="F F F"
C        1.02318810      -0.60813049       0.56819536
C       -0.38068293       0.09778552       0.51124936
C       -0.81724094       0.57442553      -0.86235467
O       -1.83802095       0.12364952      -1.36948668
O        2.01726711      -0.15713849       1.15787837
H        1.05995810      -1.74235151       0.37463435
H       -1.15253194      -0.71916650       0.57078736
H       -0.39678093       0.87852853       1.27049337
H       -0.27486293       1.35148754      -1.44239168
