9
Properties=species:S:1:pos:R:3 -167092.6652624657=T pbc="F F F"
C       -0.75937852      -0.52835551       1.16175420
C       -0.00100451      -0.82225751      -0.13730282
C        0.32187250       0.46514151      -0.89382283
O        0.62798950       0.53174751      -2.04803785
O       -0.26518651       0.27048251       1.91568622
H       -1.62563354      -0.93460051       1.59155621
H        0.97917651      -1.05828952       0.21499619
H       -0.26164351      -1.59942353      -0.90328583
H        0.37142350       1.40349853      -0.35812182
