9
Properties=species:S:1:pos:R:3 -167095.31143320558=T pbc="F F F"
C        0.99970034      -0.68589273       0.69555158
C       -0.23604068       0.06543229       0.45844057
C       -0.78034769       0.48159130      -0.91844845
O       -1.91226071       0.19672729      -1.35841946
O        1.95674036      -0.09675171       1.13145159
H        0.99366734      -1.73188974       0.26258457
H       -1.11183270      -0.50612572       0.94210858
H       -0.23268868       1.07285331       0.95405758
H       -0.15636868       1.23196831      -1.36118446
