9
Properties=species:S:1:pos:R:3 -167090.59444489208=T pbc="F F F"
C        0.87953858       0.45016755       0.17347222
C       -0.52887445       0.32940655       0.73202723
C       -1.36997346      -0.32570647      -0.38837079
O       -0.84904245      -0.64580247      -1.45270681
O        1.77762459       0.21958054       0.96848823
H        1.11058058       0.52681855      -0.80758480
H       -0.51081245      -0.05563346       1.76967225
H       -0.80491645       1.46472357       0.86251023
H       -2.39538248      -0.57558147      -0.29705979
