9
Properties=species:S:1:pos:R:3 -167095.46844060475=T pbc="F F F"
C        0.20397608      -0.55734435       0.85373801
C       -0.60056194       0.60980667       0.21700200
C       -0.31452393       0.70489267      -1.23173802
O        0.19002508      -0.18566234      -1.90690104
O        0.46734008      -0.51658235       2.05334303
H        0.56041108      -1.37642336       0.24722500
H       -1.66033395       0.08985666       0.23556100
H       -0.46392893       1.66695669       0.74783501
H       -0.40194793       1.74704669      -1.63778603
