9
Properties=species:S:1:pos:R:3 -167097.08730403628=T pbc="F F F"
C       -0.10607196       0.05569226       1.08689577
C       -0.80016297       0.13103226      -0.35029726
C        0.31614905      -0.28648875      -1.35003727
O        1.28521607       0.43392226      -1.47703428
O       -0.73765797      -0.35802475       2.04600979
H        0.91111606       0.43194226       1.08232277
H       -1.77643599      -0.47720775      -0.47613026
H       -1.05742998       1.32693028      -0.47689326
H        0.25865705      -1.29833777      -1.85524328
