9
Properties=species:S:1:pos:R:3 -167098.5526245564=T pbc="F F F"
C        0.01691279      -0.28924835       1.19019459
C       -0.72565223       0.23888666       0.00556557
C        0.16072079       0.97020667      -0.96822244
O        0.68174180       0.48366166      -1.91916646
O       -0.17433822      -1.35319437       1.69537260
H        0.70982480       0.50847266       1.66635760
H       -1.26384524      -0.47719636      -0.63629944
H       -1.53504824       0.84795367       0.43632858
H        0.56136980       1.96844869      -0.62386844
