9
Properties=species:S:1:pos:R:3 -167090.6578087728=T pbc="F F F"
C        0.41033199      -0.40921530       1.19646376
C        0.57114299      -0.92558831      -0.16590526
C       -0.16513202      -0.09129429      -1.28404628
O       -1.24605404       0.51125672      -1.20301628
O        0.44562499       0.81982272       1.45241677
H        0.34342499      -1.29370031       1.83823077
H        1.72434601      -0.71422430      -0.35563727
H        0.55395899      -2.02944633      -0.19039226
H        0.36160399      -0.10752229      -2.23213230
