9
Properties=species:S:1:pos:R:3 -167091.48500951502=T pbc="F F F"
C        0.64956476      -0.87807358       0.86987186
C        0.54157176       0.29814944      -0.23028816
C       -0.76184826       0.19460244      -1.07777917
O       -1.36201427       1.03381345      -1.58436018
O        0.96063377      -0.65866257       1.99674788
H        0.14755575      -1.83397060       0.61644186
H        0.65749276       1.25512346       0.30147585
H        1.37279278       0.19911644      -1.04933017
H       -0.91910326      -0.98622658      -1.19596118
