9
Properties=species:S:1:pos:R:3 -167090.19745578768=T pbc="F F F"
C       -0.62881262      -0.35164052       1.09931430
C       -0.12401361      -0.69612053      -0.41438272
C       -0.03194960       0.68725150      -1.13808374
O        0.91703341       1.14390850      -1.77597575
O       -0.15963561      -0.82609553       2.17855532
H       -1.30865163       0.60071350       1.03453630
H        0.69429241      -1.39168754      -0.27822872
H       -1.08581962      -1.18050254      -0.86098273
H       -0.97608262       1.22007951      -0.88894973
