9
Properties=species:S:1:pos:R:3 -167098.75641140182=T pbc="F F F"
C       -0.21655135      -0.83536463       0.82966924
C        0.73371767       0.15135038       0.05996923
C       -0.04043134       1.08876340      -0.89057579
O       -0.44683235       0.73990039      -1.97535081
O       -0.01935234      -1.10585564       2.00356626
H       -0.91343436      -1.51880265       0.15479523
H        1.38899368       0.77657539       0.62410824
H        1.30018268      -0.46196763      -0.66776479
H       -0.05345434       2.19289142      -0.54777778
