9
Properties=species:S:1:pos:R:3 -167098.56809017513=T pbc="F F F"
C        0.42901884      -0.44854997       1.01511446
C        0.45057384       0.57403605      -0.04872856
C       -0.59316918       0.32452404      -1.13607958
O       -1.77091220       0.57976405      -1.20341958
O        1.49243686      -0.99985698       1.36902946
H       -0.61660218      -0.64204397       1.46439446
H        0.14374583       1.56456007       0.40323944
H        1.47717386       0.55988505      -0.43749757
H        0.00489283      -0.17341496      -2.03797160
