9
Properties=species:S:1:pos:R:3 -167097.57533558918=T pbc="F F F"
C        0.83141941       0.25629768       1.24176647
C        0.62367441      -0.11969233      -0.22678456
C       -0.66021361      -0.64391934      -0.82580757
O       -0.92785262      -0.65075934      -2.00702059
O        0.15918140       1.10992569       1.83288248
H        1.62127543      -0.22276633       1.80624148
H        0.90149641       0.80897968      -0.82287457
H        1.51726042      -0.72066234      -0.42798156
H       -1.30516463      -1.11235335      -0.04415356
