9
Properties=species:S:1:pos:R:3 -167088.60854812377=T pbc="F F F"
C        0.47395821       0.93039606       0.23597260
C        0.84072122      -0.28872596      -0.55108741
C       -0.50614780      -1.13178397      -0.69361141
O       -1.53555482      -0.50108296      -0.46072541
O        0.81572822       0.96368107       1.40705062
H       -0.31822880       1.54967308      -0.14204340
H        0.76953222       0.09503105      -1.64337943
H        1.70666124      -0.95934497      -0.16634740
H       -0.36084180      -2.19142499      -1.05636742
