9
Properties=species:S:1:pos:R:3 -167093.89067458775=T pbc="F F F"
C        0.53553394       0.56697488       1.23760259
C       -0.56123408       0.60620588       0.11577057
C       -0.08783407       0.02626887      -1.25173446
O       -0.91200209      -0.65226815      -1.80461347
O        1.01052195      -0.45004614       1.72099260
H        1.12378695       1.53917889       1.33720159
H       -1.26867009      -0.14858114       0.37275357
H       -1.03464409       1.53323689      -0.06538543
H        0.96777795       0.28905187      -1.52764046
