9
Properties=species:S:1:pos:R:3 -167091.46205589152=T pbc="F F F"
C        0.42160789      -0.85244805       1.15647135
C       -0.69526313      -0.01128803       0.43614433
C       -0.34746513       0.79097598      -0.70296469
O       -0.95597714       0.70992598      -1.70930570
O        1.55961491      -0.68204804       0.86980034
H        0.20201288      -1.39231806       2.06954036
H       -1.55726815      -0.58538204       0.08440433
H       -1.23301814       0.79247398       1.16358235
H        0.40367789       1.60912500      -0.58688968
