9
Properties=species:S:1:pos:R:3 -167092.94778674125=T pbc="F F F"
C        0.16081663      -0.65609821       1.09802314
C       -0.64926338       0.58985482       0.40880613
C       -0.23168637       1.11601282      -0.96438390
O        0.80314464       0.82092082      -1.61129291
O       -0.13013337      -1.80841323       1.08833814
H        1.05093465      -0.40903120       1.66001215
H       -1.61907440       0.14444281       0.44579913
H       -0.55520738       1.53602983       0.99828514
H       -0.98332839       1.90135484      -1.26322890
