9
Properties=species:S:1:pos:R:3 -167097.61526204835=T pbc="F F F"
C        1.29187448      -0.13323044       0.79928255
C        0.27955346       0.87643258       0.10693953
C       -0.91914056       0.08458156      -0.51673448
O       -1.67356757       0.51876757      -1.41700549
O        1.07513048      -1.30109146       1.03147855
H        2.25888850       0.40705757       1.22938855
H        0.04893146       1.52227559       0.98750155
H        0.57733147       1.55466659      -0.73867748
H       -1.15419456      -0.92423046       0.00281753
