9
Properties=species:S:1:pos:R:3 -167095.5465278018=T pbc="F F F"
C        0.48960232      -0.32213189       0.96686676
C        0.42825332       0.87209413       0.02226074
C       -0.76151170       0.87477613      -0.90669627
O       -1.46808071      -0.14229589      -1.00989327
O        1.33295634      -1.20469791       0.89814076
H       -0.31965969      -0.36609889       1.75070577
H        0.42342732       1.78975714       0.74567776
H        1.43319134       1.02553413      -0.52686727
H       -1.25399771       1.96446115      -1.17741728
