9
Properties=species:S:1:pos:R:3 -167095.9637547708=T pbc="F F F"
C       -0.30476135      -1.23553751       0.66335811
C        0.48413267      -0.42043949      -0.33042991
C        0.10949866       1.10400253      -0.55248691
O        0.15328866       1.61593754      -1.65388393
O       -0.44456135      -1.09313250       1.87901413
H       -0.74844436      -2.08139152       0.18993710
H        1.59010368      -0.38463749      -0.07734290
H        0.40789966      -0.85503150      -1.40009793
H       -0.06637534       1.59603054       0.32877210
