9
Properties=species:S:1:pos:R:3 -167093.46873594017=T pbc="F F F"
C       -0.13000756      -0.14046492       1.22250024
C       -0.56094657       0.40894209      -0.15101779
C        0.33425545      -0.05708992      -1.19951581
O        1.20209646       0.60569809      -1.77298382
O       -0.88192658      -0.80865793       1.91835325
H        0.96116446       0.11804208       1.49517324
H       -1.55959759       0.30880408      -0.46481979
H       -0.27754457       1.40675910      -0.12760379
H        0.04179944      -1.12943694      -1.68539681
