9
Properties=species:S:1:pos:R:3 -167092.64507056482=T pbc="F F F"
C        0.53214750       1.12423118       0.40676582
C       -0.81332353       0.67569417      -0.08009319
C       -0.86293153      -0.60370185      -0.82782120
O       -0.10385851      -1.57296687      -0.71615320
O        1.20399351       0.46307017       1.16735883
H        0.79921350       1.99563520      -0.08540019
H       -1.46299654       0.44462917       0.93011583
H       -1.37572654       1.54609019      -0.52846719
H       -1.79773854      -0.61471685      -1.51011921
