9
Properties=species:S:1:pos:R:3 -167096.61347812603=T pbc="F F F"
C        0.79778067      -0.29796032       1.15396840
C       -0.49747135      -0.39629032       0.53243239
C       -0.57569135       0.33608370      -0.93081264
O       -1.53258537       1.01150571      -1.30842465
O        1.78347969      -0.68657232       0.58954239
H        0.82624967       0.27496569       2.17528341
H       -0.71807435      -1.46744634       0.41579838
H       -1.27250036       0.04061869       1.25837940
H        0.46137667       0.25956569      -1.43693665
