9
Properties=species:S:1:pos:R:3 -167091.00078064945=T pbc="F F F"
C        0.19031427      -0.15800561       1.09251780
C       -0.24833274      -0.64817162      -0.30380322
C       -0.08743974       0.27430440      -1.54965224
O        0.06877826       1.47623742      -1.32365824
O        0.06953626      -0.96369362       2.05677482
H        0.67921428       0.81392841       0.98426580
H        0.13506527      -1.60495463      -0.49948922
H       -1.34322276      -0.80074962      -0.51060322
H        0.06573726      -0.20974761      -2.54891126
