9
Properties=species:S:1:pos:R:3 -167087.22502474813=T pbc="F F F"
C        1.21903052      -0.69600837       0.68237898
C        0.36255451      -0.29833336      -0.58162305
C       -1.00253952       0.40412365      -0.43794404
O       -1.40844852       1.01293366      -1.42699106
O        0.87986351      -0.45040236       1.79055599
H        2.13381454      -1.08129837       0.43582797
H        1.15508852       0.09528465      -1.23412406
H       -0.02612850      -1.10508637      -1.28102806
H       -1.76834253       0.19094565       0.32412597
