9
Properties=species:S:1:pos:R:3 -167086.49963105452=T pbc="F F F"
C       -0.44268094      -0.51086070       1.23828327
C       -0.70322494      -0.18495470      -0.11206275
C        0.53763808      -0.02406369      -0.94035377
O        0.51178108       0.36635731      -2.17434179
O        0.04872507       0.28630331       2.01226328
H       -0.59603094      -1.59928672       1.65562828
H       -1.23659795      -0.98851571      -0.76347177
H       -1.37853196       0.69639532      -0.13983575
H        1.55806210       0.10468631      -0.39310076
