9
Properties=species:S:1:pos:R:3 -167097.98482177046=T pbc="F F F"
C        1.07109765      -0.05960175       0.47287857
C        0.26570163       0.71252226      -0.52864345
C       -1.14849439      -0.00286575      -0.49889345
O       -1.51731940      -1.04166877      -1.03171146
O        1.35627865       0.43966526       1.52853659
H        1.24835665      -1.05943277       0.09265456
H        0.11899463       1.73258528      -0.04730444
H        0.77432364       0.66632926      -1.50100346
H       -1.82795540       0.47466026       0.17489957
