9
Properties=species:S:1:pos:R:3 -167099.71040616714=T pbc="F F F"
C        0.26679524       0.18284555       1.34943729
C       -0.88757378      -0.04468246       0.47953628
C       -0.45536977       0.20261355      -0.97921575
O       -0.46213777      -0.60003947      -1.85617776
O        1.45074926       0.27626655       1.04441129
H        0.08372824       0.13342855       2.41091831
H       -1.26564379      -1.02375747       0.61100428
H       -1.66447979       0.69361755       0.89506029
H       -0.03007277       1.27765357      -1.15158075
