9
Properties=species:S:1:pos:R:3 -167094.77216366338=T pbc="F F F"
C        0.68904368       0.16407449       1.20177820
C       -0.67196135      -0.01039052       0.49268019
C       -0.52625634      -0.17877652      -1.12451584
O       -0.84293335      -1.15426354      -1.75699185
O        1.34544869       1.18475551       1.21572220
H        0.99668068      -0.76957553       1.81176521
H       -1.12036635      -0.99911753       0.86662220
H       -1.40434336       0.79314450       0.59719319
H       -0.38460634       0.79039150      -1.47144684
