9
Properties=species:S:1:pos:R:3 -167089.7459089269=T pbc="F F F"
C       -0.03524430       0.41166003       0.90426342
C        0.77102471       0.05215703      -0.20194860
C        0.03695070      -0.46179198      -1.39335162
O       -1.07401932      -0.90177399      -1.37937662
O        0.32833170       0.94022004       2.01859944
H       -1.03949832      -0.07729998       0.70167742
H        1.46581572       0.86819304      -0.49014560
H        1.49472072      -0.82838899       0.20114341
H        0.71278871      -0.59678299      -2.32954863
