9
Properties=species:S:1:pos:R:3 -167094.22164876942=T pbc="F F F"
C        0.41152529       0.96617706       0.43154066
C       -0.07106072      -0.49207696       0.79312566
C       -0.61710472      -1.19978797      -0.49291336
O       -1.29208074      -0.55842596      -1.23809437
O        1.56448231       1.22399307       0.54803766
H       -0.26374672       1.80950008       0.10645965
H        0.58417230      -1.16020097       1.37539267
H       -1.01442473      -0.40112796       1.42639267
H       -0.33530472      -2.17056299      -0.66940136
