9
Properties=species:S:1:pos:R:3 -167093.40124419075=T pbc="F F F"
C        1.01322001      -0.39429446       0.29903075
C        0.48546700       0.76553756      -0.48271026
C       -1.06739003       0.57511256      -0.40132426
O       -1.66336704      -0.33444146      -0.98317027
O        1.30322401      -0.51963946       1.50625277
H        0.86575300      -1.37065848      -0.11547426
H        0.65950200       1.77973258       0.01735274
H        0.66299700       0.59412656      -1.53694628
H       -1.60790004       1.28358857       0.29890875
