9
Properties=species:S:1:pos:R:3 -167090.79630972614=T pbc="F F F"
C        0.43135680      -0.27183320       1.36111696
C        0.15788580      -0.99533921       0.07380793
C       -0.12847621       0.10867881      -1.16664609
O       -1.16289122       0.18298381      -1.78313510
O        0.70392281       0.91117982       1.51456096
H        0.38896380      -1.05681321       2.23648597
H        1.10162382      -1.46618722      -0.29566207
H       -0.44952521      -1.77837623       0.31060494
H        0.75683281       0.73019082      -1.18331209
