9
Properties=species:S:1:pos:R:3 -167084.9941312308=T pbc="F F F"
C        0.60121116      -0.81813031       0.91492643
C       -0.31733686      -1.04777331      -0.24755359
C       -0.93074387       0.29101171      -1.00947260
O       -0.85889387       1.39941673      -0.58469559
O        1.47279217       0.06759870       0.89531343
H        0.34421315      -1.19650532       1.98894245
H        0.07654215      -1.72502233      -1.08585060
H       -0.98970087      -1.75852633       0.13505642
H       -1.47190088       0.14942271      -1.89455562
