9
Properties=species:S:1:pos:R:3 -167092.18487870475=T pbc="F F F"
C        0.95138861      -0.29632646       0.80850656
C       -0.35724042      -0.38280146       0.07979854
C       -0.50367942       0.49076755      -1.21626048
O       -1.49522743       1.21167256      -1.41322948
O        1.38045962      -1.01322748       1.72530257
H        1.79410062       0.41270855       0.44847455
H       -0.32897341      -1.36067148      -0.33060746
H       -1.16791343      -0.30061046       0.81429356
H        0.44703860       0.34188055      -1.98007849
