9
Properties=species:S:1:pos:R:3 -167084.3742178506=T pbc="F F F"
C       -0.20386944      -0.22327724       1.05412248
C        0.27366557       0.97246778       0.31449747
C        0.89605758       0.47456377      -1.03444756
O        0.38654757      -0.49855924      -1.48955456
O       -1.29891346      -0.66744025       1.18286548
H        0.70832957      -0.66230525       1.35435549
H       -0.29807744       1.90213080       0.02153446
H        0.97066458       1.44168479       1.14776348
H        1.59873759       1.25271479      -1.63520857
