9
Properties=species:S:1:pos:R:3 -167095.80982636422=T pbc="F F F"
C        0.10441787       0.15563096       0.99627110
C        0.82086088       0.18771696      -0.25548092
C       -0.00494013      -0.41616105      -1.38771394
O       -1.10950015      -0.90903506      -1.33075494
O        0.25662487       0.96361798       1.93837712
H       -0.67842015      -0.57478905       1.21670811
H        1.16755389       1.14858898      -0.68353893
H        1.64944089      -0.42776605      -0.04918291
H        0.43886087      -0.14533104      -2.42458096
