9
Properties=species:S:1:pos:R:3 -167083.4124686944=T pbc="F F F"
C       -0.02847917      -0.32315242       1.28826206
C        0.43604584      -0.67293343      -0.16443797
C        0.22749683       0.61341359      -0.85594598
O        0.56439284       1.02983360      -1.93894200
O       -1.15125419      -0.68856643       1.69500206
H        0.62037484       0.31892259       1.82917206
H        1.59541186      -0.79946143      -0.35887397
H        0.08081983      -1.52627644      -0.59836298
H       -0.54428318       1.14707060      -0.19000997
