9
Properties=species:S:1:pos:R:3 -167083.24425565527=T pbc="F F F"
C        1.03451429       0.20380068       0.96145470
C        0.70664928       0.22293368      -0.50754832
C       -0.61141674       0.19432068      -0.98272933
O       -1.25289175      -0.84083334      -1.34019534
O        0.16630627       0.27383068       1.79492972
H        2.21284431       0.09966068       1.29998771
H        1.41871829       1.06058569      -0.70176733
H        1.29565229      -0.70318734      -0.67794133
H       -1.13401675       1.14688870      -0.84063933
