9
Properties=species:S:1:pos:R:3 -167092.67313160133=T pbc="F F F"
C       -0.47417794      -0.87992665       0.51272793
C        0.80656009      -0.02185264       0.15118692
C        0.63205008       0.95261738      -0.91701210
O       -0.39497493       1.39007238      -1.36809011
O       -0.51710994      -1.40479066       1.59632094
H       -1.35477295      -1.00436766      -0.27822109
H        1.15274609       0.36439137       1.11485694
H        1.58444810      -0.94716166      -0.16402309
H        1.60969810       1.21540738      -1.28121611
