9
Properties=species:S:1:pos:R:3 -167095.4262056716=T pbc="F F F"
C       -0.02248337       0.56090184       0.94734606
C        0.82941164       0.04049983      -0.20119396
C       -0.04831838      -0.44746818      -1.44977398
O       -1.05404239      -1.02513319      -1.43314998
O        0.33186763       0.87912385       2.09861708
H       -1.14134339       0.69870284       0.59977206
H        1.46119765       0.89272385      -0.47779296
H        1.52967265      -0.75314018       0.03786805
H        0.57927264      -0.35387217      -2.34338799
