9
Properties=species:S:1:pos:R:3 -167092.14136745184=T pbc="F F F"
C        1.26342415       0.32058027       0.40348365
C        0.00336612      -0.60622274       0.36949865
C       -1.12195489      -0.10171573      -0.58125036
O       -1.79583991      -0.68760574      -1.42070138
O        1.63971815       1.01835929       1.26326667
H        1.74624115       0.36301727      -0.62515936
H        0.55885113      -1.52836576      -0.03306635
H       -0.32171688      -0.50988974       1.39033467
H       -1.23013990       1.03814729      -0.51642536
