9
Properties=species:S:1:pos:R:3 -167097.19931240001=T pbc="F F F"
C        0.51438322      -0.33800378       0.95132900
C        0.44914322       0.87790724       0.05262799
C       -0.78731481       0.86183324      -0.90985303
O       -1.46257182      -0.14547178      -1.01366703
O        1.30952623      -1.19552680       0.89107700
H       -0.28855980      -0.12549878       1.73629702
H        0.36943421       1.73827125       0.76069000
H        1.39246723       1.07100024      -0.50770102
H       -1.14251881       1.90860926      -1.16417303
