9
Properties=species:S:1:pos:R:3 -167096.51386676542=T pbc="F F F"
C        1.16320272       0.23060620       0.58407488
C        0.34089370      -0.79003981      -0.24647714
C       -0.67583331      -0.11057580      -1.22394316
O       -1.86992533       0.12223220      -0.99165915
O        1.09195872       0.45904321       1.81283790
H        1.82994873       0.97097122      -0.01221413
H        1.04238472      -1.36528282      -0.86360615
H       -0.23312631      -1.32982982       0.50329387
H       -0.15429930       0.47656621      -2.10661317
