9
Properties=species:S:1:pos:R:3 -167094.58887669435=T pbc="F F F"
C        0.87245932      -0.74586867       0.82158113
C        0.32636132      -0.68481167      -0.61286790
C       -0.31822670       0.77127135      -0.69457990
O       -1.18975171       1.14207036      -1.41328891
O        0.35374032      -0.54354067       1.86822815
H        1.94245034      -1.00865068       0.92020913
H        1.10026033      -0.78217167      -1.38644191
H       -0.48033470      -1.44430268      -0.76542290
H        0.22065031       1.58749437      -0.20342889
