9
Properties=species:S:1:pos:R:3 -167095.1076718524=T pbc="F F F"
C        1.07357181       0.33876468       0.20205858
C        0.02872379      -0.56725734       0.77393559
C       -1.21391823      -0.87607534      -0.16072143
O       -1.12838923      -0.48797034      -1.29325945
O        1.24409581       1.52442070       0.55021258
H        1.67576582      -0.14606833      -0.75023444
H        0.33905880      -1.63074436       0.90707959
H       -0.37625822      -0.08875633       1.66389960
H       -2.14584225      -1.43174835       0.26463558
