9
Properties=species:S:1:pos:R:3 -167093.95047016983=T pbc="F F F"
C        1.12002248       0.42871299       0.41393922
C       -0.16312654      -0.46647303       0.70968122
C       -1.19641256      -0.59393203      -0.41191080
O       -0.95965856      -0.95495803      -1.57572682
O        1.21724348       1.53355201       0.92151523
H        1.56923449       0.16335399      -0.55312480
H        0.02546746      -1.53626804       0.93061323
H       -0.50431255       0.01677398       1.63602924
H       -2.32656558      -0.30511702      -0.10490979
