9
Properties=species:S:1:pos:R:3 -167092.41190274933=T pbc="F F F"
C       -0.13206266      -1.25163107       0.77255111
C        0.11890535      -0.47597305      -0.58986991
C        0.44697736       1.00235697      -0.42129691
O        0.79470136       1.83363399      -1.21813292
O       -1.16822167      -1.14522106       1.42410913
H        0.51278236      -2.07819708       1.17688012
H        0.81152036      -1.09995306      -1.05449792
H       -0.78234967      -0.38923605      -1.19787992
H        0.22066435       1.27716698       0.64766211
