9
Properties=species:S:1:pos:R:3 -167096.53965064374=T pbc="F F F"
C        0.08770345      -0.76300448       1.15546609
C        0.52624746      -0.49994548      -0.22926393
C       -0.27052255       0.69725754      -0.94811194
O       -0.75072956       0.51827454      -2.01592096
O        0.42384946      -0.01755947       2.05509911
H       -0.64002056      -1.60245750       1.35661610
H        1.52318248       0.04433753      -0.42652493
H        0.41273446      -1.38261949      -0.86413594
H       -0.19721455       1.72963056      -0.42686493
