9
Properties=species:S:1:pos:R:3 -167094.24838744637=T pbc="F F F"
C        0.04580312       0.56984872       1.05186408
C       -0.78383690      -0.56332830       0.30834907
C       -0.74714390      -0.24823929      -1.13571396
O        0.26395912      -0.16264329      -1.79737597
O        1.12879413       0.37254972       1.56857209
H       -0.63663690       1.49488774       1.27035008
H       -0.23178189      -1.43187231       0.53980607
H       -1.84887892      -0.45472530       0.66256107
H       -1.70295091      -0.06155229      -1.51450696
