9
Properties=species:S:1:pos:R:3 -167099.54586233472=T pbc="F F F"
C       -0.25973574      -0.79977242       0.59723545
C       -0.19433174       0.65377560       0.44854145
C        0.11463127       1.06806261      -0.94995258
O        0.82384928       0.43382860      -1.77162659
O       -0.49739875      -1.30033143       1.68293647
H       -0.12386274      -1.37759343      -0.34082457
H       -1.15714776       1.05079261       0.67695845
H        0.56739327       1.13177161       1.20484146
H       -0.42578074       1.96817862      -1.27436258
