9
Properties=species:S:1:pos:R:3 -167093.36098930048=T pbc="F F F"
C       -0.74478007       0.09372815       0.80102946
C        0.09105694      -0.82051786      -0.08154355
C        1.06795296       0.07654015      -0.94124557
O        0.68667896       0.88886517      -1.76136358
O       -1.08233708      -0.26671885       1.94716148
H       -1.10053208       0.93009517       0.38612845
H        0.72677496      -1.29451887       0.66881646
H       -0.40999006      -1.64626588      -0.63154256
H        2.13096498      -0.12081385      -0.73169556
