9
Properties=species:S:1:pos:R:3 -167092.89422138294=T pbc="F F F"
C        0.17354241       0.22131087       1.19478151
C       -0.56764760       0.83896589       0.03995449
C       -0.18792859       0.23348687      -1.37616553
O        0.75715442      -0.44076814      -1.56500054
O       -0.19732659      -0.77987614       1.71536652
H        1.12846943       0.77939688       1.57175252
H       -1.65311962       0.77788788       0.26505049
H       -0.44973760       2.00501491      -0.29583652
H       -0.98030961       0.40558888      -2.24340655
