9
Properties=species:S:1:pos:R:3 -167087.80396576307=T pbc="F F F"
C       -0.60090263       0.09000083       0.99273107
C        0.35549038      -0.78322318       0.16998706
C        0.83017939      -0.07828317      -1.28117797
O        0.78580139       1.06310585      -1.73764897
O       -1.33784664      -0.32354018       1.85049509
H       -0.73004863       1.26948885       0.74122107
H        1.15725940      -1.21103519       0.87181407
H       -0.06724662      -1.78314020      -0.14047195
H        1.43867240      -0.82657319      -1.85303198
