9
Properties=species:S:1:pos:R:3 -167093.60787934373=T pbc="F F F"
C        1.06494227      -0.59849270       0.15440946
C       -0.41403975      -0.72674271       0.33222846
C       -1.11288476       0.53496032      -0.21383655
O       -1.26486077       0.91699432      -1.37385257
O        1.69937029      -0.23026070       1.12520048
H        1.52768228      -0.57431370      -0.86792456
H       -0.97818576      -1.42972772      -0.29383755
H       -0.73349076      -0.86749671       1.35758148
H       -1.21124377       1.38224733       0.50227047
