9
Properties=species:S:1:pos:R:3 -167089.83115251124=T pbc="F F F"
C        0.52269271       0.26297211       1.13779829
C       -0.78713031       0.43636112       0.42014428
C       -0.40123530       0.51023312      -1.06253674
O       -0.23324230      -0.31078390      -1.95934776
O        0.84749572      -0.83076490       1.54566230
H        1.16436672       1.15672213       0.92739529
H       -1.56205032      -0.37796890       0.36751928
H       -1.21733932       1.39394013       0.80686629
H       -0.20757130       1.54241514      -1.43500475
