9
Properties=species:S:1:pos:R:3 -167090.2531546709=T pbc="F F F"
C        1.18070692      -0.79834139       0.31932994
C       -0.42575810      -0.77420539       0.13635793
C       -0.73930811       0.65077663      -0.45979508
O       -1.64191512       0.96096964      -1.20549509
O        1.63629793      -0.10514338       1.18407295
H        1.69854893      -1.69829641      -0.17513007
H       -0.81183911      -1.65346641      -0.51731708
H       -0.79449811      -0.85152039       1.08334295
H       -0.18929410       1.59605865      -0.00200707
