9
Properties=species:S:1:pos:R:3 -167091.71932730798=T pbc="F F F"
C        0.41717788       0.00258402       1.33302406
C        0.07432488      -0.83253000       0.20960904
C       -0.76744514      -0.21203199      -0.83623398
O       -0.39272413      -0.19268299      -1.99194900
O        0.64902289       1.15556304       1.32478406
H        0.41960888      -0.53244099       2.29066708
H        0.96465389      -1.10242900      -0.39156997
H       -0.44388013      -1.68423501       0.78504605
H       -1.72243116       0.44415302      -0.50672497
