9
Properties=species:S:1:pos:R:3 -167090.0961218414=T pbc="F F F"
C       -0.47918554      -1.24061307       0.58041871
C       -0.59864354       0.12902696      -0.18048331
C        0.61189548       0.99320797      -0.57213631
O        0.93137049       1.51230498      -1.62405033
O       -0.50774754      -1.40471007       1.77868573
H       -0.37473454      -2.23296808      -0.11297830
H       -1.08046855       0.01980796      -1.15344632
H       -1.06975955       0.65187297       0.56913471
H        1.34955049       1.26318598       0.29348070
