9
Properties=species:S:1:pos:R:3 -167095.4285033112=T pbc="F F F"
C       -0.25163791      -0.95259093       0.45838982
C       -0.89383492       0.40052709       0.16867181
C        0.07519709       1.22076611      -0.60687920
O        0.78303610       0.74019510      -1.55362122
O        0.21245610      -1.36031494       1.55053384
H       -0.27854491      -1.63642794      -0.38216120
H       -1.78788994       0.44427610      -0.50604520
H       -1.19921793       0.75317110       1.18143683
H        0.21005909       2.31860913      -0.48454020
