9
Properties=species:S:1:pos:R:3 -167099.18454734725=T pbc="F F F"
C        0.08061877      -0.69239757       0.97225758
C       -0.87134925       0.14294244       0.08571456
C       -0.01762624       0.77207145      -1.10019046
O        0.32045077       0.20829545      -2.12670548
O        0.39323877      -0.39839257       2.14680060
H        0.62638478      -1.60984759       0.56529157
H       -1.52597626      -0.62565257      -0.33509045
H       -1.32110726       0.88801646       0.79778757
H        0.51889277       1.71380847      -0.84422646
