9
Properties=species:S:1:pos:R:3 -167083.99700588806=T pbc="F F F"
C        1.11817058       0.13080020       0.48520531
C        0.38792956      -0.81639682      -0.20150470
C       -0.56188045       0.03582720      -1.10215072
O       -1.71394447       0.10528320      -0.83241471
O        0.85627957       0.46723721       1.58840133
H        1.65636759       0.77300021      -0.21071370
H        1.04423958      -1.43806883      -0.81713171
H       -0.17452045      -1.43908483       0.54391731
H       -0.15698445       0.75453221      -1.76898273
