9
Properties=species:S:1:pos:R:3 -167086.21571396143=T pbc="F F F"
C        0.00613759      -0.92854762       0.79576387
C       -0.50742842      -0.18750560      -0.54494216
C        0.21222559       0.95560842      -1.18174217
O        1.09793561       1.62854743      -0.58051016
O       -0.82770342      -1.44856163       1.47336788
H        1.09858561      -1.21775162       1.09433587
H       -0.35795642      -0.87626162      -1.33413117
H       -1.51022644      -0.06035860      -0.58604416
H       -0.07733341       1.20825542      -2.26015019
