9
Properties=species:S:1:pos:R:3 -167096.67030994044=T pbc="F F F"
C        0.21783454       0.38391952       1.05434905
C        0.52737055      -0.50836050      -0.21648497
C       -0.17796946      -0.10895549      -1.44103700
O       -1.36176448      -0.09908249      -1.51442900
O        0.84854355       0.32570752       2.07337607
H       -0.72849847       0.98515653       0.96327805
H        1.51613257      -0.73357250      -0.51178298
H        0.16199954      -1.46482451       0.13851703
H        0.44157755       0.39554852      -2.27903101
