9
Properties=species:S:1:pos:R:3 -167097.56194036672=T pbc="F F F"
C       -0.05838566      -1.07752524       0.58316515
C       -0.84497067       0.16151379      -0.02449386
C        0.11005134       1.26484380      -0.63154387
O        0.77449835       1.10178480      -1.66550889
O       -0.04255266      -1.42152224       1.72504617
H        0.70763935      -1.54936524      -0.01684986
H       -1.47134569      -0.16591122      -0.86932188
H       -1.46372869       0.45321979       0.81117515
H        0.05667234       2.18303482      -0.00222186
