9
Properties=species:S:1:pos:R:3 -167089.1475490828=T pbc="F F F"
C       -0.51642070      -0.27717567       1.35513074
C        0.78541332      -0.41356467       0.32961272
C        0.51086331      -0.10024567      -1.13554331
O        0.95152532       0.81055735      -1.78811632
O       -1.67351072      -0.06995066       1.24897273
H       -0.19213570      -0.61816467       2.49733876
H        1.43525733       0.39964734       0.62450172
H        1.17712533      -1.40803669       0.46564172
H       -0.24742570      -0.70927668      -1.57011432
