9
Properties=species:S:1:pos:R:3 -167096.55257210566=T pbc="F F F"
C       -0.60127915      -0.58569142       0.75478848
C        0.12312387      -0.68675342      -0.57892654
C        0.39535687       0.65824560      -1.31881656
O        0.18670087       1.69400162      -0.66945055
O       -0.11828314      -1.10638743       1.73307350
H       -1.64039716      -0.12163141       0.84712548
H        1.05958288      -1.17673743      -0.38585254
H       -0.39722914      -1.28413543      -1.26968556
H        0.87807088       0.56980560      -2.46309058
