9
Properties=species:S:1:pos:R:3 -167096.19622624677=T pbc="F F F"
C        0.01712878      -0.08353787       1.24273801
C       -0.00297322       0.69905414      -0.14480701
C        0.09391678      -0.29757987      -1.21290503
O       -0.78692123      -0.55996388      -2.05773404
O        0.69883679       0.24914314       2.17941103
H       -0.92394524      -0.76456788       1.28385601
H       -0.93735424       1.31532715      -0.34571701
H        0.90774780       1.32296515      -0.24449601
H        1.06471680      -0.72638788      -1.25576903
