9
Properties=species:S:1:pos:R:3 -167098.6512297828=T pbc="F F F"
C       -0.46038927      -0.64051230       0.83381967
C        0.30004774      -0.80678230      -0.49002635
C        0.25469174       0.47385772      -1.27255037
O       -0.35544827       1.48674574      -0.92758236
O        0.25460174      -0.58444930       1.81491769
H       -1.57424529      -0.34249729       0.84711467
H        1.29444476      -1.26101831      -0.34842635
H       -0.11895427      -1.49364331      -1.23563437
H        0.87585075       0.36760572      -2.28715838
