9
Properties=species:S:1:pos:R:3 -167088.90583522108=T pbc="F F F"
C       -0.45225080      -0.65491245       0.92224624
C        0.59512922       0.35284757       0.29100423
C        0.63489122       0.64010357      -1.17802279
O        0.02655821       0.06892056      -2.08422281
O       -0.77157480      -0.40828444       2.03232626
H       -0.83267780      -1.31597446       0.08946023
H        0.49873622       1.14643358       1.09788925
H        1.69122124       0.00522856       0.57683124
H        1.20590423       1.52529459      -1.35999480
