9
Properties=species:S:1:pos:R:3 -167092.30290368092=T pbc="F F F"
C        0.56616479       1.02694114       0.86567947
C       -0.77316323       0.56321313       0.20872146
C       -0.48887423      -0.88164289      -0.32287855
O       -1.05055924      -1.24863890      -1.29700057
O        1.69240081       0.60098513       0.58756546
H        0.44402279       1.77493616       1.76200348
H       -1.56709225       0.32212513       0.94757147
H       -1.01671324       1.31679015      -0.71515456
H        0.23892779      -1.57123990       0.31658146
