9
Properties=species:S:1:pos:R:3 -167091.63733400914=T pbc="F F F"
C        1.23777215       0.19232637       0.61566088
C       -0.21297188       0.26213837       0.43818188
C       -0.72474589       0.19930437      -0.96896115
O       -1.91395191       0.23545437      -1.25642915
O        1.65185415      -0.81955264       1.16775889
H        1.91502316       1.05694939       0.22110288
H       -0.81712789      -0.54604164       0.92753289
H       -0.58909389       1.25678239       0.79785589
H        0.07818413      -0.28194364      -1.54990116
