9
Properties=species:S:1:pos:R:3 -167094.39255724772=T pbc="F F F"
C       -0.33955927      -0.89101242       0.89172806
C       -0.58869128       0.29373560       0.08170205
C        0.61419574       0.63661661      -0.96800797
O        0.49183974       0.82599461      -2.15705999
O       -0.18493727      -0.87272642       2.12525908
H       -0.35932827      -1.92543143       0.36165705
H       -1.72696230       0.26993260      -0.30124396
H       -0.57858828       1.19173662       0.77394606
H        1.53351076       0.73701761      -0.39421596
