9
Properties=species:S:1:pos:R:3 -167090.871267518=T pbc="F F F"
C       -0.70997518      -0.17698092       0.85416118
C        0.71865184       0.07736209       0.46624217
C        0.63884684       0.15275909      -1.11204686
O        0.19509083       1.13537811      -1.73889787
O       -0.79312119      -1.17123893       1.54658419
H       -1.40590120       0.57662010       0.42128117
H        0.98812885       0.95406310       1.09120118
H        1.32563885      -0.78831493       0.70231117
H        0.87335784      -0.80596293      -1.64350087
