9
Properties=species:S:1:pos:R:3 -167092.25947104453=T pbc="F F F"
C       -0.81617684      -0.86106213       0.79754812
C        0.01926817       0.47895989       0.72833311
C        0.65719318       0.73074390      -0.78814891
O        0.39998018       1.62594291      -1.53367792
O       -0.28280483      -1.96803415       0.86458012
H       -1.98350886      -0.67586313       0.82267312
H       -0.65714984       1.35383291       0.88211412
H        1.01199119       0.51235189       1.32676012
H        1.43257820       0.08769789      -1.19653192
