9
Properties=species:S:1:pos:R:3 -167094.6520688615=T pbc="F F F"
C        0.30721999      -0.03215150       1.09225994
C       -0.07465002       0.70618151      -0.16201008
C       -0.32437602      -0.04331050      -1.32929610
O       -1.12259604      -0.94139052      -1.49836210
O        1.20147000       0.32691250       1.85824996
H       -0.31048202      -0.83851652       1.43158595
H       -0.82740103       1.38844852       0.16582093
H        0.75687299       1.37635352      -0.33719508
H        0.22234199       0.31605750      -2.22051811
