9
Properties=species:S:1:pos:R:3 -167087.4350054074=T pbc="F F F"
C        0.50476891       0.09415793       1.24149378
C       -0.69284411      -0.28039007       0.21353776
C       -0.21980910      -0.01302207      -1.18665626
O       -0.26321010      -0.98993709      -1.89820827
O        0.63373291       1.19180895       1.64004979
H        1.05129892      -0.78466408       1.71269479
H       -0.85175411      -1.28575809       0.35665276
H       -1.46016412       0.41608194       0.54713377
H        0.23676191       0.82297295      -1.71481727
