9
Properties=species:S:1:pos:R:3 -167086.53710190617=T pbc="F F F"
C        0.63782870       0.98498852       0.53929884
C       -0.35810632      -0.12945350       0.50762784
C       -1.13387933      -0.42695250      -0.80020619
O       -0.94205733      -1.52620352      -1.34523119
O        1.75868272       1.10848552       1.07043885
H        0.29579370       1.99566454       0.30979583
H        0.10883669      -0.97943351       1.14207185
H       -1.19587933       0.22610451       1.09610685
H       -1.99888834       0.28409351      -1.12447919
