9
Properties=species:S:1:pos:R:3 -167097.66200743348=T pbc="F F F"
C       -0.14728347       0.53286460       1.31803688
C       -0.35374348      -0.60091842       0.27031286
C        0.00925153      -0.07972641      -1.15393016
O       -0.49932948      -0.33972041      -2.26465218
O        0.93785754       0.48461760       1.86824189
H       -0.99752449       1.21052961       1.44338888
H        0.39664554      -1.41142643       0.43688487
H       -1.34476549      -1.04807943       0.28310286
H        0.84137154       0.70894660      -1.04461716
