9
Properties=species:S:1:pos:R:3 -167096.6674807683=T pbc="F F F"
C       -0.68704959      -0.51983449       1.20401577
C       -0.09063858      -0.83887550      -0.21041126
C        0.23016342       0.37701652      -1.02462427
O        1.09912544       0.47527753      -1.84110729
O       -0.55296259       0.44949953       1.88024778
H       -1.49908961      -1.38642951       1.46094877
H        0.74245243      -1.53435851      -0.04367525
H       -0.91578160      -1.26220950      -0.71129527
H       -0.47629859       1.19497054      -0.95781927
