9
Properties=species:S:1:pos:R:3 -167087.42255634995=T pbc="F F F"
C        1.03557405      -0.04855859       0.87825274
C        0.67335604       0.12637741      -0.51035428
C       -0.89652898       0.13194241      -0.66960728
O       -1.64657900       0.84952243      -1.28092029
O        0.90617505      -1.04398561       1.53006475
H        1.46104306       0.87116643       1.26462075
H        1.20147505       1.13020443      -0.81498429
H        0.82885805      -0.87063460      -1.01633529
H       -1.41374899      -0.54205560       0.20499073
