9
Properties=species:S:1:pos:R:3 -167093.69779573468=T pbc="F F F"
C       -0.06980441       0.50978233       1.40684973
C       -0.42201742       0.80982634      -0.14303730
C        0.08413459      -0.32507268      -1.03294232
O       -0.43122742      -0.66128369      -2.06055633
O        0.79317260      -0.28307068       1.82910273
H       -0.57770342       1.09743034       2.18348774
H       -1.45814044       1.17178935      -0.11800330
H        0.06486859       1.63108435      -0.59736831
H        1.08090461      -0.75448469      -0.54371031
