9
Properties=species:S:1:pos:R:3 -167088.59962215592=T pbc="F F F"
C       -0.00665505       0.87956850       0.82851948
C        0.35356395       0.80586650      -0.69979755
C       -0.51145306      -0.47410853      -1.20002956
O       -0.58277206      -1.56819654      -0.63741755
O        0.74588196       0.46106949       1.63991849
H       -0.96008607       1.28070051       1.02019948
H       -0.02372805       1.56906551      -1.34848256
H        1.43022597       0.37821049      -0.79417055
H       -1.07588507      -0.08012352      -2.03208757
