9
Properties=species:S:1:pos:R:3 -167086.9638091797=T pbc="F F F"
C       -0.44622835      -0.48588132       1.22761086
C        0.61928467      -0.08851131       0.29873984
C        0.25610066       0.49357570      -1.04699518
O        1.16766268       0.30523670      -1.79510320
O       -1.62447137      -0.23201531       1.31909886
H        0.14409866      -0.85426732       2.23245587
H        1.30809668       0.62918370       0.84514585
H        1.33553268      -0.95272532       0.06953084
H       -0.64774135       0.97800571      -1.30020219
