9
Properties=species:S:1:pos:R:3 -167097.74411744013=T pbc="F F F"
C        0.14993667      -0.15425416       1.40906512
C        0.14792867      -0.41227417      -0.11965091
C       -0.82047835       0.41795785      -1.00008392
O       -0.80077935       0.43434985      -2.21513094
O        1.26929069      -0.27994116       1.95492113
H       -0.81178835       0.14479584       1.85989413
H        1.21031769      -0.27623216      -0.38607391
H       -0.04428233      -1.45298218      -0.40010191
H       -1.56719836       0.90284386      -0.38900591
