9
Properties=species:S:1:pos:R:3 -167099.69881992103=T pbc="F F F"
C       -0.20514928      -0.04392609       1.32749741
C       -0.00419228      -0.78494610      -0.07395861
C        0.91427374       0.03644991      -0.99030363
O        0.65138273       0.57497292      -2.04065565
O       -1.31728730       0.16395792       1.77214942
H        0.75838274       0.21271592       1.92008742
H        0.53537073      -1.72037712       0.09916339
H       -1.05917329      -0.88456510      -0.49711162
H        1.94030176       0.10009391      -0.39504662
