9
Properties=species:S:1:pos:R:3 -167095.92907098136=T pbc="F F F"
C       -0.23047972      -0.29799712       1.15665812
C       -0.84953973      -0.22119412      -0.24454490
C       -0.24305972       0.89496490      -1.12036492
O        0.91792330       0.98151490      -1.43084692
O        0.31174429      -1.33899914       1.61350113
H       -0.20377872       0.70748490       1.62496313
H       -0.53116873      -1.17310513      -0.67039591
H       -2.02862275      -0.09370912      -0.09809390
H       -0.99846973       1.75859092      -1.27571092
