9
Properties=species:S:1:pos:R:3 -167092.68530334896=T pbc="F F F"
C        0.75023726      -0.54427298       0.88132902
C        0.29912926      -0.25040397      -0.50802000
C       -0.92790577       0.57262004      -0.52061300
O       -1.98066378       0.42846704      -1.03822501
O        1.85420728      -0.22940497       1.19547303
H        0.04061425      -1.10918399       1.41947403
H        1.13463927       0.19999704      -1.16880201
H        0.15223225      -1.19573299      -0.95386301
H       -0.76674176       1.58965406      -0.03852599
