9
Properties=species:S:1:pos:R:3 -167089.64786749549=T pbc="F F F"
C       -0.23646111      -0.66453418       1.03360604
C       -0.84277812      -0.56503818      -0.28842998
C       -0.50622911       0.67323584      -0.97977600
O        0.64051691       0.84569185      -1.31947200
O        0.82424291      -0.29285617       1.53208605
H       -0.86625612      -1.35795119       1.58790105
H       -0.25067911      -1.38665519      -0.83253199
H       -1.96399914      -0.88227418      -0.40966299
H       -1.28796712       1.47718086      -0.92670399
