9
Properties=species:S:1:pos:R:3 -167096.78241178792=T pbc="F F F"
C        0.04543199       0.71556074       0.88706145
C        0.61851200      -0.39814528       0.14655944
C       -0.17297702      -0.88710928      -1.08209958
O       -0.38327902      -0.19101227      -2.04500660
O       -0.06498602       0.73542674       2.07813047
H       -0.40176802       1.49384476       0.39726944
H        1.65164301      -0.15687127      -0.14253557
H        0.62411900      -1.25593629       0.85889345
H       -0.60556203      -1.93804330      -1.06209958
