9
Properties=species:S:1:pos:R:3 -167090.89385590868=T pbc="F F F"
C        0.22315670      -0.66312041       0.98959547
C        0.24197170      -0.70059141      -0.55286656
C        0.56543871       0.74314161      -0.98395056
O       -0.29719131       1.67046163      -1.16508657
O       -0.64597431      -1.11488842       1.68589348
H        1.04019372      -0.10739040       1.39374248
H        0.85572871      -1.34987243      -1.30496957
H       -0.82848032      -0.95160342      -0.76616556
H        1.63049473       0.98053961      -1.07251657
