9
Properties=species:S:1:pos:R:3 -167080.85071526017=T pbc="F F F"
C       -0.65357719      -0.66975743       0.71518773
C        0.05070582       0.63213359       0.42797673
C        0.33586883       1.14327660      -0.98154029
O        0.65068383       0.35555958      -1.88845831
O       -0.44963719      -1.33422644       1.71885975
H       -1.17879020      -1.29103044      -0.03760328
H       -0.10819718       1.10444960       1.47265775
H        1.08461784       0.33506458       0.56791573
H        0.19076683       2.21885162      -1.23574930
