9
Properties=species:S:1:pos:R:3 -167090.45206128966=T pbc="F F F"
C       -1.02985416       0.10742834       1.12887264
C       -0.00840514       0.91080636       0.24687863
C        0.50757387      -0.16795066      -0.95827639
O        1.15716788       0.20357635      -1.87515241
O       -0.68610415      -0.99485068       1.44399365
H       -1.84818917       0.66740435       1.63355265
H       -0.31396515       2.02165438      -0.00074938
H        0.88039287       0.92437136       0.91520664
H        0.12441886      -1.17951868      -0.67600939
