9
Properties=species:S:1:pos:R:3 -167090.821531443=T pbc="F F F"
C        0.18996406       1.01599243       0.93510165
C       -0.31940995       0.57620943      -0.38598637
C       -0.86636696      -0.76383060      -0.47634137
O       -0.40132795      -1.46640461      -1.29874439
O        1.31977408       0.70242043       1.24541766
H       -0.47952795       1.58663944       1.59343066
H       -1.05060596       1.17441244      -0.82051138
H        0.49472807       0.66806243      -1.03458638
H       -1.68402797      -1.16740560       0.24149464
