9
Properties=species:S:1:pos:R:3 -167098.9679144087=T pbc="F F F"
C        0.42886545       0.40456243       1.04543527
C        0.03492645       0.69129644      -0.38248276
C       -0.44305356      -0.60625458      -1.04504377
O       -1.61451658      -0.94274859      -1.05487377
O        1.59757447       0.47487243       1.39091727
H       -0.41326656       0.33104143       1.73350928
H       -0.72871957       1.56570445      -0.35558576
H        0.88618146       1.11513145      -0.93717477
H        0.27776045      -1.41597760      -1.22450777
