9
Properties=species:S:1:pos:R:3 -167096.93610742333=T pbc="F F F"
C        0.03637624       0.25874741       1.28144796
C       -0.26805076       0.96054142      -0.01332806
C       -0.01262876       0.01698840      -1.20772408
O       -0.82050477      -0.83219561      -1.59108609
O        1.05987626      -0.30241860       1.55567697
H       -0.77325477       0.13970241       1.92211597
H       -1.32221378       1.19230242      -0.14428706
H        0.27616225       1.89465844      -0.23965606
H        0.92918426       0.06034641      -1.69532709
