9
Properties=species:S:1:pos:R:3 -167101.7791312987=T pbc="F F F"
C        0.98196417       0.55780304       0.85591529
C        0.80469517       0.01094503      -0.58499074
C       -0.64743586      -0.22994997      -0.80407974
O       -1.12174486      -1.35020999      -1.01018274
O        0.05610616       1.01959505       1.50300730
H        2.08985019       0.59803204       1.33059330
H        1.24575918       0.81940605      -1.20365175
H        1.39141418      -0.89104398      -0.83075174
H       -1.37910287       0.68669404      -0.76948574
