9
Properties=species:S:1:pos:R:3 -167090.84780409315=T pbc="F F F"
C        0.72364781      -0.17171395       1.00339655
C        0.52917580      -0.10855695      -0.57816648
C       -0.50463922       0.88113607      -0.94071649
O       -1.66188824       0.55308406      -1.20517849
O        0.98197581      -1.12423097       1.66865556
H        0.39202280       0.88360807       1.45828456
H        1.47189482       0.07343905      -1.13789349
H        0.31884380      -1.04521397      -0.99353149
H       -0.30056121       1.99828409      -0.54476848
