9
Properties=species:S:1:pos:R:3 -167096.8467264317=T pbc="F F F"
C        0.70734823       0.00439195       1.19677303
C       -0.12284679      -1.00872407       0.32954801
C       -0.79288280      -0.25530606      -0.85687801
O       -0.24774279      -0.05174905      -1.94626603
O        0.44137522       1.20655897       1.29922903
H        1.39451224      -0.47035606       1.87214104
H        0.49690622      -1.87206609       0.10001501
H       -0.85449780      -1.44441908       0.96737203
H       -1.62884681       0.45746595      -0.64152500
