9
Properties=species:S:1:pos:R:3 -167080.88796612297=T pbc="F F F"
C        1.02543306      -0.68294297       0.51893380
C       -0.23146197      -0.61378797      -0.13706022
C       -0.40430797       0.57312605      -1.06625523
O       -1.46640899       1.20204207      -1.12332523
O        1.10155906      -0.51273696       1.77392182
H        1.82774207      -1.10938297      -0.22194422
H        0.08424804      -1.45684198      -0.80165323
H       -1.09066698      -0.75500997       0.52166980
H        0.32945804       0.99730206      -1.67469724
