9
Properties=species:S:1:pos:R:3 -167093.80643749543=T pbc="F F F"
C        0.33790838       0.88820835       0.59140985
C       -0.01600763      -0.55221468       0.90940985
C       -0.81370564      -1.10151668      -0.38252917
O       -1.05010765      -0.51074867      -1.38075419
O        1.51051440       1.24411836       0.34414184
H       -0.58180764       1.49474136       0.69078185
H        0.88821039      -1.17756569       1.07931086
H       -0.79297164      -0.72307068       1.61964186
H       -0.96458365      -2.11826270      -0.25323817
