9
Properties=species:S:1:pos:R:3 -167095.89744599673=T pbc="F F F"
C        0.58707745       0.36005852       0.85132372
C        0.46790345      -0.67206750      -0.30827930
C       -0.70605757      -0.37540849      -1.27742031
O       -1.66594659       0.40291252      -1.10158831
O        1.34604546       0.25047852       1.79282174
H        0.02095744       1.26707654       0.49457772
H        1.44014946      -0.88124350      -0.74606031
H        0.08753744      -1.55850551       0.31434471
H       -0.62615157      -1.01215550      -2.28915033
