9
Properties=species:S:1:pos:R:3 -167081.33997772814=T pbc="F F F"
C        1.03018853      -0.71273101       0.60303042
C       -0.18205449      -0.65790301      -0.22288860
C       -0.45763350       0.53844001      -1.09176161
O       -1.38982352       1.21503802      -1.03871561
O        1.03174153      -0.44973801       1.72181944
H        1.82377854      -0.83766801      -0.21585260
H       -0.22526749      -1.60748103      -0.86880061
H       -1.06910951      -0.61416201       0.48987841
H        0.50399652       0.82223601      -1.77344362
