9
Properties=species:S:1:pos:R:3 -167097.58948645194=T pbc="F F F"
C        0.46341278       1.02487709       0.71001952
C        0.28714878      -0.37773793       0.11806751
C       -0.75465224      -0.44514493      -0.97685051
O       -0.89267124      -1.46487595      -1.65881552
O        0.87087879       1.29061310       1.83512154
H        0.34720478       1.82404111      -0.03238750
H        1.16993879      -0.69218394      -0.56958851
H        0.14371178      -1.29127595       0.79752652
H       -1.26628625       0.51998608      -1.22235352
