9
Properties=species:S:1:pos:R:3 -167091.16410244454=T pbc="F F F"
C        0.39472247       0.93002043       0.28441558
C       -0.15482854      -0.50445359       0.84896059
C       -0.82103055      -1.21097860      -0.34828543
O       -0.99414055      -0.55240059      -1.38262845
O        1.52690549       1.30467544       0.67166958
H       -0.14096854       1.40383844      -0.60536144
H        0.64416848      -1.25344861       1.32825760
H       -1.06358155      -0.43533359       1.51651260
H       -0.97549055      -2.30244062      -0.30391643
