9
Properties=species:S:1:pos:R:3 -167078.2448392425=T pbc="F F F"
C       -0.86807970      -0.84149351       0.87389907
C        0.55664732      -0.66157151      -0.16340595
C        0.26468231       0.58146551      -0.94757096
O        0.95270933       1.13533152      -1.69538998
O       -0.91225971      -0.28440751       1.92236209
H       -1.57628472      -1.64329353       0.55039106
H        1.53769034      -0.34272251       0.28747406
H        0.67071032      -1.51882153      -0.95488496
H       -0.71743570       0.97338352      -0.66234696
