9
Properties=species:S:1:pos:R:3 -167099.23837623614=T pbc="F F F"
C        1.04656904       0.00851040       0.38993386
C       -0.50904299      -0.02669960       0.67443687
C       -1.42153800      -0.01259060      -0.53808615
O       -1.06230700      -0.67239961      -1.48337217
O        1.86006905       0.72466742       0.97819887
H        1.42585505      -0.75185461      -0.36798815
H       -0.52402099      -1.08773661       1.06591388
H       -0.73136399       0.62410841       1.52476788
H       -2.30575402       0.75244442      -0.47160715
