9
Properties=species:S:1:pos:R:3 -167097.95553574167=T pbc="F F F"
C        0.04097027      -0.05917231       1.17895355
C       -0.32952274       0.77636970      -0.09945347
C        0.05280327      -0.11638931      -1.19327949
O       -0.68808474      -0.82481933      -1.84560850
O        0.89653528       0.27251669       1.95007857
H       -0.66147574      -0.92267833       1.33770256
H       -1.37580076       1.15021471      -0.01441847
H        0.43041927       1.62437272      -0.07973747
H        1.10562129      -0.24018432      -1.54681049
