9
Properties=species:S:1:pos:R:3 -167094.0166864463=T pbc="F F F"
C        0.88755044       0.26322511       1.05034439
C       -0.20676258      -0.51415090       0.17071937
C       -0.16664458      -0.27674790      -1.29529665
O       -1.07925560      -0.02504990      -2.09269167
O        0.59087443       0.56717311       2.16071741
H        1.89774245       0.25690411       0.61015338
H        0.16302542      -1.55291992       0.46621038
H       -1.22161260      -0.53235890       0.51069538
H        0.78999243      -0.49259390      -1.78279866
