9
Properties=species:S:1:pos:R:3 -167092.8032154407=T pbc="F F F"
C        0.69991075       0.86268591       0.42673505
C        0.71150275      -0.51462311      -0.03304896
C       -0.68185827      -0.74805712      -0.38874796
O       -1.00575528      -0.83038212      -1.60084099
O        0.35853175       1.19051092       1.60562107
H        0.76634975       1.75348593      -0.28451296
H        1.29655776      -0.62351712      -0.92497697
H        0.99900276      -1.31040613       0.74512206
H       -1.47669229      -0.77240412       0.32970705
