9
Properties=species:S:1:pos:R:3 -167092.29524132892=T pbc="F F F"
C        0.80666694      -0.14340887       0.92447372
C       -0.52365608       0.56902914       0.37792871
C       -0.69837008       0.05664413      -1.09231231
O       -1.49131710      -0.78014888      -1.31025432
O        1.86485096       0.35697314       1.10164672
H        0.49446894      -1.26845689       0.96545172
H       -1.36451210       0.24344714       1.05353172
H       -0.36311808       1.62016316       0.41874671
H        0.25051893       0.37871314      -1.62848332
