9
Properties=species:S:1:pos:R:3 -167093.01142681515=T pbc="F F F"
C        0.85804958       0.39577330       0.90533367
C        0.37866557      -0.91404072       0.20515666
C       -0.27355844      -0.79643572      -1.21607737
O       -1.10165145       0.03160530      -1.53326438
O        0.20047557       1.19857632       1.59062768
H        1.97053460       0.47785330       0.84762567
H        1.22520059      -1.52408173       0.44441166
H       -0.43832344      -1.15596072       0.96177267
H        0.07676157      -1.66774073      -1.90700038
