9
Properties=species:S:1:pos:R:3 -167088.39225165587=T pbc="F F F"
C        0.00937753       0.38655781       1.33975708
C        0.48473254      -0.04163619      -0.07197394
C       -0.71754048      -0.18492220      -1.21815396
O       -0.40110647      -0.41155420      -2.38748198
O        0.60348855       0.24602881       2.36832210
H       -1.03833548       0.89011082       1.32643208
H        1.25150656       0.66624682      -0.45955695
H        0.86585455      -1.03139421      -0.17281695
H       -1.63062849       0.19695881      -0.98090296
