9
Properties=species:S:1:pos:R:3 -167098.90261448012=T pbc="F F F"
C        0.44573525       0.41872351       0.86310636
C       -0.82496377      -0.20757650       0.30303035
C       -0.54418976      -0.67801751      -1.15482167
O       -0.01219475       0.01244150      -1.98739069
O        0.87183826       0.40773551       2.00501738
H        0.95798126       0.94525352       0.00668635
H       -1.43503878      -0.96861351       0.90194036
H       -1.57315078       0.68198351       0.09877535
H       -0.59797476      -1.76819053      -1.42187668
