9
Properties=species:S:1:pos:R:3 -167092.0419183315=T pbc="F F F"
C        1.24253320       0.01893363       0.37873602
C        0.09784718      -0.92550539       0.44952102
C       -0.94997883       0.04397663      -0.37664599
O       -1.57290885      -0.41866238      -1.31900601
O        1.21223320       1.17806465       0.92353503
H        2.02085422      -0.12518938      -0.42262799
H        0.24652519      -1.76738140      -0.15524699
H       -0.26465982      -1.04628439       1.52325004
H       -0.92697983       1.15736265      -0.04621899
