9
Properties=species:S:1:pos:R:3 -167098.16123943074=T pbc="F F F"
C        0.30918925       0.41745538       1.31741742
C        0.68496526       0.39516838      -0.16741461
C       -0.58271877       0.31787738      -1.08132762
O       -0.76923777      -0.42162063      -2.02329764
O        0.41151425      -0.62066763       1.97185543
H       -0.14864376       1.39757040       1.77895643
H        1.14675326       1.28791940      -0.53510761
H        1.23136827      -0.59809563      -0.46818861
H       -1.45104078       0.99379339      -0.77693862
