9
Properties=species:S:1:pos:R:3 -167094.8100908216=T pbc="F F F"
C       -0.24491656      -0.49032106       1.03928786
C        0.05000945      -0.58975507      -0.61969717
C        0.61880946       0.72156596      -1.10172518
O       -0.05040755       1.74942797      -1.10721018
O       -0.31687656      -1.42947408       1.72467187
H       -0.56948756       0.50222095       1.29913286
H        0.67738046      -1.48666208      -0.80778417
H       -1.02252957      -0.67645707      -0.82590517
H        1.69636948       0.85171696      -1.34295018
