9
Properties=species:S:1:pos:R:3 -167090.10022482584=T pbc="F F F"
C        0.77361999       0.09381663       1.16085432
C       -0.75947804       0.14440864       0.73797932
C       -0.72784704      -0.64170638      -0.57213771
O       -0.93046004      -0.09846337      -1.60324872
O        1.59679600       0.49598564       0.35773331
H        0.81795899      -0.43099037       2.13424534
H       -1.39843505      -0.54539438       1.39212633
H       -1.12314404       1.20803465       0.76338832
H       -0.37365103      -1.73643640      -0.31926770
