9
Properties=species:S:1:pos:R:3 -167093.4044990759=T pbc="F F F"
C        0.94205762      -0.42229689       0.77906452
C        0.60221661      -0.10794288      -0.58409550
C       -0.79301841       0.36929713      -0.66491850
O       -1.64522343      -0.41760889      -1.11375651
O        0.94924462       0.56582713       1.55131154
H        1.24249662      -1.46353991       1.03005553
H        1.36299763       0.72419713      -0.86658250
H        0.64091461      -1.03499090      -1.29988651
H       -1.14579442       1.33831914      -0.21229449
