9
Properties=species:S:1:pos:R:3 -167090.96420296235=T pbc="F F F"
C        0.25458084      -0.01300865       1.13447354
C        0.59651784       0.63022536      -0.18783348
C       -0.31433717      -0.10900666      -1.24625750
O       -0.30467617      -1.17120867      -1.75953751
O       -0.18107317       0.69291036       2.06356056
H        0.14009583      -1.06206767       1.24214254
H        0.50555084       1.69096738      -0.27623648
H        1.66278286       0.25663735      -0.50630849
H       -0.99036219       0.65423436      -1.71717051
