9
Properties=species:S:1:pos:R:3 -167098.3953897996=T pbc="F F F"
C       -0.22103225       0.15452735       1.39985196
C       -0.27189925      -0.82351767       0.20720494
C        0.06507376      -0.04746766      -1.00870008
O       -0.46610825      -0.10007966      -2.15709910
O        0.85060377       0.76680136       1.58692196
H       -1.02033826       0.23921335       2.20674397
H        0.43040376      -1.68436369       0.37143294
H       -1.27096927      -1.27466068       0.07852994
H        0.85310977       0.66919635      -0.73211408
