9
Properties=species:S:1:pos:R:3 -167094.34243923263=T pbc="F F F"
C       -0.33802525      -0.42346752       1.03854945
C        0.85508477       0.16218149       0.38453844
C        0.39947177       0.44723749      -1.09175258
O       -0.20846824       1.45586451      -1.36691059
O       -0.62892725      -1.65325555       1.09668945
H       -1.06923626       0.29099249       1.35705146
H        0.95304678       1.21071650       0.65369245
H        1.72932379      -0.48571253       0.32547844
H        0.76395877      -0.09734952      -1.99276960
