9
Properties=species:S:1:pos:R:3 -167094.33032037612=T pbc="F F F"
C        0.82484269       0.64654779       0.12260617
C       -0.48071834       0.02546178       0.66723418
C       -0.87521634      -1.03455724      -0.25810584
O       -1.23513235      -0.77165723      -1.41566586
O        1.72657470       1.07694780       0.92583518
H        0.99352769       0.70880179      -0.96000985
H       -0.36302334      -0.11112022       1.75129820
H       -1.13855835       0.87184180       0.37430117
H       -0.96787135      -1.99791325       0.27710717
