9
Properties=species:S:1:pos:R:3 -167096.98817078216=T pbc="F F F"
C        0.71705426       0.09321302       1.12018667
C       -0.45710577      -0.19184098       0.16467965
C       -0.19594276       0.46888503      -1.20903037
O       -0.80325277       0.12725302      -2.22067439
O        0.74819926      -0.48886999       2.15975769
H        1.53360627       0.86220404       0.77195166
H       -0.56070277      -1.22399300       0.03358365
H       -1.31909478       0.36006103       0.62596466
H        0.45782525       1.33226404      -1.36767337
