9
Properties=species:S:1:pos:R:3 -167092.14187955135=T pbc="F F F"
C       -0.23104905       0.52036009       1.00999762
C        0.09589295      -0.71207493       0.34257561
C       -0.39595606      -0.75182993      -1.24193542
O        0.13289695      -0.07494192      -2.10371544
O        0.37318896       0.96447910       1.99204564
H       -1.21115607       0.99707610       0.65208661
H        1.12521497      -1.03001593       0.26031260
H       -0.36871406      -1.41093594       0.96791562
H       -1.25343407      -1.43909894      -1.42537942
