9
Properties=species:S:1:pos:R:3 -167098.06938862763=T pbc="F F F"
C        0.32609226       0.33293780       1.14870170
C       -0.81218976      -0.33878422       0.27777169
C       -0.92906877       0.11145179      -1.16479634
O        0.04310825       0.23485079      -1.86361035
O        1.29692527      -0.33052722       1.60088571
H        0.15098225       1.39624981       1.34235171
H       -0.79610076      -1.47767024       0.33778469
H       -1.81732678      -0.10708821       0.80458270
H       -1.95471678       0.44953780      -1.43083234
