9
Properties=species:S:1:pos:R:3 -167087.21952820773=T pbc="F F F"
C        0.36025147       0.74154324       0.48456159
C        0.81946648      -0.26647278      -0.68987043
C       -0.52654955      -0.89883679      -1.06357543
O       -1.50138256      -0.70559779      -0.30491742
O        0.93077248       1.07821624       1.51336161
H       -0.55548255       1.12410224      -0.03585141
H        1.09867248       0.41403623      -1.53862044
H        1.45780149      -1.05292279      -0.35404842
H       -0.72215955      -1.35322780      -2.14197845
