9
Properties=species:S:1:pos:R:3 -167091.6207649816=T pbc="F F F"
C       -0.61770010      -0.83151059       0.52618361
C        0.53374192      -0.51876058      -0.32313841
C        0.48830592       1.11017745      -0.37217441
O        0.27759992       1.67785046      -1.42674843
O       -0.61912910      -1.46037860       1.59239663
H       -1.60440812      -0.53739758       0.02632960
H        1.42752994      -0.84244359       0.26760260
H        0.48757692      -0.78793859      -1.43779343
H        0.29511792       1.57509845       0.52869661
