9
Properties=species:S:1:pos:R:3 -167093.26702465353=T pbc="F F F"
C        0.71754083       1.04336618       0.52347894
C       -0.31461719      -0.15020084       0.52777494
C       -1.08369820      -0.47564584      -0.73656408
O       -1.03714920      -1.52777686      -1.43045609
O        1.71756585       1.14480919       1.12788995
H        0.22353882       1.79600220      -0.12948207
H        0.08792182      -1.06243085       1.08600895
H       -1.17955520       0.08158917       1.15882795
H       -1.82474522       0.29148117      -1.06036809
