9
Properties=species:S:1:pos:R:3 -167092.73425949202=T pbc="F F F"
C        0.91722457       0.26557158       1.01711216
C        0.59043357       0.38664158      -0.54877486
C       -0.75196346      -0.23655843      -0.81181787
O       -1.09107446      -1.17560745      -1.57331288
O        0.40088256       0.80226359       1.90364118
H        1.75853959      -0.40019743       1.11428716
H        0.41486856       1.44763360      -0.99933687
H        1.34600558      -0.13811543      -1.14151488
H       -1.56349447       0.06678758      -0.12622086
