9
Properties=species:S:1:pos:R:3 -167092.72328499943=T pbc="F F F"
C        0.03034539       0.33917814       1.09927845
C        0.53240340       0.37738314      -0.36077258
C        0.07752639      -0.64581988      -1.29322259
O       -1.06264363      -0.89971388      -1.58417960
O        0.47875040       0.81156515       2.12905747
H       -1.07857663       0.03598214       1.02112345
H        0.11883839       1.33666616      -0.74512858
H        1.60120242       0.23619714      -0.42261058
H        1.00169840      -1.05216688      -1.89607460
