9
Properties=species:S:1:pos:R:3 -167090.33105688696=T pbc="F F F"
C        0.01332337       0.32915071       1.31864412
C       -0.26144664       0.97938372       0.00394610
C       -0.00752863      -0.02172730      -1.17734892
O       -0.79772965      -0.84422231      -1.60583593
O        1.04790938      -0.33068930       1.46829013
H       -0.93865765       0.38538871       2.10891614
H       -1.33016366       1.04327172       0.09423910
H        0.31543537       1.86311474      -0.01970090
H        1.02685538       0.03313270      -1.72986593
