9
Properties=species:S:1:pos:R:3 -167095.76051581948=T pbc="F F F"
C       -0.11575531      -0.81375224       0.74097857
C       -0.49998632       0.68306679       0.18208156
C        0.43294870       1.02256079      -0.92001346
O        0.46818370       0.29982178      -1.90649848
O       -0.29518831      -1.08856524       1.90103659
H        0.34259070      -1.50725025      -0.00171345
H       -1.45702733       0.26288678      -0.28546245
H       -0.52891032       1.30133080       1.09348157
H        1.07426871       1.84155681      -0.75589746
