9
Properties=species:S:1:pos:R:3 -167093.55834294192=T pbc="F F F"
C       -0.72770164       0.07980386       1.17984437
C       -0.57585163      -0.19984814      -0.35150066
C        0.75579939       0.42035887      -0.82827866
O        0.90469539       0.36207287      -2.04038069
O       -0.38694263      -0.67088715       2.04331339
H       -1.20098964       1.13590588       1.53265238
H       -0.63182663      -1.27586216      -0.66896366
H       -1.32253065       0.41832487      -0.83041566
H        1.46024640       1.04694388      -0.08059165
