9
Properties=species:S:1:pos:R:3 -167096.01258439696=T pbc="F F F"
C        0.83278399       0.26112126       1.22876457
C        0.61236999      -0.12036174      -0.22320745
C       -0.66423703      -0.64413375      -0.81475646
O       -0.92218804      -0.64743875      -2.01001848
O        0.15636898       1.10969428       1.83405658
H        1.65939101      -0.26987074       1.79755158
H        0.93904499       0.77012427      -0.82420146
H        1.52470100      -0.71326275      -0.41238345
H       -1.26727705      -1.12973076      -0.04015445
