9
Properties=species:S:1:pos:R:3 -167093.44389770174=T pbc="F F F"
C       -0.70354178      -0.41112028       0.73733953
C        0.30928824       0.60441674       0.29601152
C        0.99579025       0.48219974      -1.00722350
O        0.31343924       0.05263673      -1.95121552
O       -0.85141078      -0.70426028       1.92305055
H       -1.24225378      -0.88605328      -0.13263048
H       -0.36555577       1.62435676       0.11972352
H        0.89453625       0.68985874       1.29582254
H        2.08887727       0.87055875      -1.14701350
