9
Properties=species:S:1:pos:R:3 -167097.06257727943=T pbc="F F F"
C       -0.03716355      -0.29502475       1.46341130
C        0.79676247       0.40987026       0.36703928
C       -0.00208255       0.30636826      -1.02765374
O        0.51792046       0.27226726      -2.15389976
O       -1.21645857      -0.64410976       1.39412330
H        0.52433546      -0.68926176       2.32179332
H        0.94229647       1.41625728       0.89996929
H        1.75012849      -0.12255075       0.20106628
H       -1.15007156       0.28164526      -0.92338974
