9
Properties=species:S:1:pos:R:3 -167097.7367747684=T pbc="F F F"
C        0.90143555      -0.15092776       0.94974102
C       -0.17255847       0.48120725       0.10314701
C       -0.37266147      -0.23425076      -1.26608002
O       -1.37922949      -0.01361476      -1.93716203
O        1.04287956      -0.08307676       2.16140404
H        1.63942757      -0.76591077       0.36180601
H       -1.25793848       0.68383025       0.44295801
H        0.27983854       1.37895627      -0.28577400
H        0.43539154      -0.90570877      -1.53943302
