9
Properties=species:S:1:pos:R:3 -167097.6220678682=T pbc="F F F"
C       -0.29134914      -0.67882864       0.80495158
C        0.39706187       0.55512039       0.36701257
C        0.41253087       0.84778139      -1.08936045
O       -0.26036614       0.43942238      -2.04569147
O       -0.20975114      -1.14276964       1.95648260
H       -1.02392615      -1.13230364       0.07862657
H       -0.19040114       1.39370440       0.90802058
H        1.45508989       0.58482939       0.64879058
H        1.04970188       1.69498641      -1.20317645
