9
Properties=species:S:1:pos:R:3 -167086.09350824816=T pbc="F F F"
C       -0.10177884      -0.51303478       1.23947114
C        0.31567117       0.65082424       0.27489113
C        0.02780816       0.44655224      -1.19850990
O        1.03315218       0.28170424      -1.88284091
O       -1.26034986      -0.81791478       1.60612315
H        0.83017418      -0.97040979       1.61353215
H       -0.40822484       1.39632626       0.43800313
H        1.35070719       0.98450825       0.30341113
H       -1.04475086       0.14196923      -1.72403491
