9
Properties=species:S:1:pos:R:3 -167092.3946211207=T pbc="F F F"
C        0.15180656       0.63110576       1.17443863
C        0.07099755       0.52066276      -0.30601039
C       -0.88556646      -0.31906326      -0.98130441
O       -0.58224246      -1.28969228      -1.71447742
O        1.18387957       0.49434075       1.82301264
H       -0.79310246       0.88992976       1.60744964
H        0.01370455       1.59076777      -0.64318740
H        1.01443557       0.26937375      -0.59785740
H       -1.89205748      -0.04214425      -0.74494040
