9
Properties=species:S:1:pos:R:3 -167096.07379034883=T pbc="F F F"
C        0.23329988       0.80077272       1.01359861
C       -0.66077813      -0.39705030       0.38230660
C       -0.16025512      -0.65286530      -0.93693443
O       -0.77488313      -0.41286530      -1.97184745
O        1.31662490       0.62367172       1.55828862
H       -0.13928112       1.82776874       0.75647160
H       -0.66984513      -1.17851431       1.10432461
H       -1.60437715       0.04056771       0.21752859
H        0.81370889      -1.06897131      -0.97973243
