9
Properties=species:S:1:pos:R:3 -167094.19991452413=T pbc="F F F"
C       -0.24017088      -0.64646824       1.12573510
C       -0.07539888       0.57956078       0.25361209
C        1.02287814       0.40888777      -0.81194993
O        0.70156114       0.75716078      -1.88335895
O       -1.33684490      -1.08033025       1.35567411
H        0.62396114      -1.23784125       1.60601811
H       -1.06447489       0.60108078      -0.27331692
H        0.05266813       1.49046379       0.82322510
H        2.04846016       0.20332977      -0.53708693
