9
Properties=species:S:1:pos:R:3 -167095.18798544278=T pbc="F F F"
C       -0.55010368      -0.65282973       0.79504112
C        0.71444934      -0.18157872      -0.00339890
C        0.71682534       1.07887230      -0.86220591
O       -0.30312768       1.30865430      -1.51179092
O       -0.53766068      -1.51523675       1.61775113
H       -1.37418770       0.04266528       0.49937211
H        1.71594236      -0.30640072       0.51730611
H        0.84168634      -0.92474874      -0.90078391
H        1.66852836       1.55630831      -0.95736991
