9
Properties=species:S:1:pos:R:3 -167091.49351566652=T pbc="F F F"
C       -0.22279353       0.07338588       1.39916823
C        0.42755448      -0.40796113       0.05523321
C        0.60943348       0.65761789      -1.10660881
O        0.38893248       0.17366288      -2.22590183
O       -1.15016255      -0.47951113       1.92503624
H        0.16739348       1.09617889       1.75519724
H        1.47781250      -0.63273714       0.22058221
H        0.03260447      -1.32501915      -0.35208280
H        0.70898949       1.86919791      -0.98984881
