9
Properties=species:S:1:pos:R:3 -167090.43013709917=T pbc="F F F"
C        0.90616858       0.02024236       0.91076994
C        0.39876157       0.81259338      -0.35044308
C       -0.69620845       0.07136936      -1.40639010
O       -1.17954245      -1.07570866      -1.28159210
O        0.62483358       0.23624637       2.06614196
H        1.37706659      -0.93987665       0.63855693
H       -0.05811843       1.66996539       0.10148392
H        1.21502459       1.00712138      -1.00281810
H       -0.97828545       0.81945038      -2.11466812
