9
Properties=species:S:1:pos:R:3 -167094.3529072701=T pbc="F F F"
C        0.18791108       0.33857470       1.00500155
C        0.66011908      -0.40673832      -0.27190748
C       -0.17393793      -0.12321731      -1.39566349
O       -1.39591795      -0.08307131      -1.42136250
O        0.78676509       0.29345270       2.04657257
H       -0.82615694       0.90378971       0.88713155
H        1.76688410      -0.27475631      -0.59067948
H        0.43323408      -1.50705334       0.08662853
H        0.26743608      -0.18214531      -2.41651751
