9
Properties=species:S:1:pos:R:3 -167083.1114243404=T pbc="F F F"
C       -0.19473316       0.39302161       1.14551170
C        0.17216685      -0.69429141       0.16712568
C        0.15001785      -0.26526840      -1.34784735
O       -0.80005117      -0.04130540      -2.05260536
O        0.67509085       0.57516461       2.05311071
H       -1.24620518       0.71944361       1.44699870
H        1.20322286      -1.14885542       0.20745668
H       -0.66236517      -1.27720942       0.47051169
H        1.17101486      -0.02043840      -1.71374835
