9
Properties=species:S:1:pos:R:3 -167079.4894086699=T pbc="F F F"
C       -0.71769898      -0.47323468       1.22254239
C       -0.95622898       0.14628533      -0.27500164
C        0.34272204       0.20011133      -0.93614665
O        0.92860705       1.02662035      -1.74089466
O        0.29673204      -0.93090569       1.67153740
H       -1.47223299      -0.12845067       1.93830940
H       -1.80328699      -0.30694768      -0.69724764
H       -1.24276898       1.10101435       0.11324237
H        0.92170905      -0.67443868      -0.38922164
