9
Properties=species:S:1:pos:R:3 -167091.60309081862=T pbc="F F F"
C        1.03998627      -0.83987849       0.46727698
C        0.64613527      -0.25272348      -0.80444304
C       -0.49421775       0.80876854      -0.55946503
O       -1.67444377       0.49031053      -0.53313003
O        0.58695927      -0.24620248       1.39749800
H        1.76616929      -1.69367750       0.57608899
H        1.44394428       0.21077953      -1.49425305
H        0.11518526      -0.91544349      -1.44004205
H       -0.25792475       1.90372556      -0.68390804
