9
Properties=species:S:1:pos:R:3 -167098.33482861298=T pbc="F F F"
C        0.25684384      -0.92341049       0.99966516
C        0.11490284       0.53312353       0.52335115
C       -0.08311117       0.63503653      -0.99289787
O        0.49691784       1.35728655      -1.74604089
O       -0.75377018      -1.58760351       1.23674817
H        1.29610586      -1.35639550       0.98611616
H       -0.69842018       0.93654454       1.16428416
H        0.96696685       1.16770054       0.77067816
H       -0.92495318      -0.00674348      -1.15026288
