9
Properties=species:S:1:pos:R:3 -167101.08453505902=T pbc="F F F"
C       -0.57738568      -0.47901284       0.80853902
C        0.08589233      -0.66201485      -0.64572401
C        0.76220534       0.68209818      -1.10297602
O        0.40537934       1.82144820      -0.73998201
O       -0.64815668      -1.38550786       1.62087003
H       -0.97305969       0.53698417       0.99387102
H        0.66364834      -1.56857786      -0.62927501
H       -0.71909268      -0.96862685      -1.32683302
H        1.65823536       0.54592617      -1.82375903
