9
Properties=species:S:1:pos:R:3 -167093.5271738783=T pbc="F F F"
C        0.84294835      -0.02755876       0.81540859
C        0.09224334       0.62736025      -0.33200743
C       -1.22077769      -0.02352976      -0.65847144
O       -1.51025969      -1.05059578      -1.23982645
O        1.76501637       0.49229525       1.38097560
H        0.67985835      -1.14604278       1.15666360
H       -0.03245367       1.63863827       0.02742158
H        0.75576835       0.90246725      -1.16040544
H       -2.04592270       0.60400325      -0.17928743
