9
Properties=species:S:1:pos:R:3 -167091.0992846349=T pbc="F F F"
C        1.13102966      -0.12059258       0.78260871
C        0.54969165       0.11284042      -0.62493932
C       -0.86252238       0.04500242      -0.72479032
O       -1.61164939       0.91591743      -1.12229933
O        0.81648965      -0.94279460       1.65465872
H        1.98529767       0.53299443       0.93727771
H        1.08872166       1.07344744      -0.98592932
H        1.06025266      -0.64894559      -1.07548132
H       -1.25666438      -0.97446860      -0.57218532
