9
Properties=species:S:1:pos:R:3 -167100.19349197138=T pbc="F F F"
C       -0.60915249      -0.08032525       1.05051349
C        0.81171654       0.02494975       0.47441148
C        0.92477554       0.40475676      -1.02676355
O        0.04322953       0.78998476      -1.78576956
O       -1.11197949      -1.11102627       1.31698649
H       -1.31051450       0.78143876       1.12056149
H        1.48741055       0.74182776       1.02110549
H        1.33537155      -0.94752427       0.65223448
H        2.02653056       0.35939675      -1.28549655
