9
Properties=species:S:1:pos:R:3 -167086.99539163618=T pbc="F F F"
C        1.11709176      -0.56045805       0.64371422
C        0.38746675       0.16090796      -0.44029480
C       -1.04862628      -0.15940904      -0.87853681
O       -2.08431230       0.51599497      -0.97850681
O        1.64256477       0.02598496       1.58581523
H        1.21594776      -1.61773007       0.74294822
H        0.61284175       1.16996598      -0.19360680
H        0.99383376      -0.25197804      -1.20386382
H       -1.24047628      -1.24644206      -0.94539581
