9
Properties=species:S:1:pos:R:3 -167093.58643329385=T pbc="F F F"
C       -0.83008120      -0.29849127       0.91213840
C        0.37476482      -0.69909828      -0.12325362
C        0.75403983       0.62459474      -0.84043463
O        0.47588082       0.75255175      -2.03119565
O       -0.77533620      -0.41259127       2.10351142
H       -1.67047222       0.26351774       0.37321639
H        1.25764084      -1.10731129       0.41741939
H       -0.08075119      -1.34164029      -0.85207963
H        1.68930784       1.23119975      -0.47246462
