9
Properties=species:S:1:pos:R:3 -167091.99979946457=T pbc="F F F"
C       -0.64807594      -0.85495867       0.91095328
C       -0.82266394       0.37682335       0.03016426
C        0.37151108       0.89079836      -0.76557975
O        0.78222509       0.45309035      -1.85464477
O        0.25450008      -0.84664667       1.67231629
H       -1.48122895      -1.78450169       0.86016427
H       -1.81684296       0.30905935      -0.55180675
H       -1.07439294       1.18902736       0.76166827
H        1.00721309       1.61893137      -0.26643874
