9
Properties=species:S:1:pos:R:3 -167102.7760176621=T pbc="F F F"
C       -0.29547444      -0.52374230       1.23816054
C        0.37700657       0.73550572       0.63327152
C        0.55773057       0.66152872      -0.87607850
O       -0.33057345       0.81307872      -1.68909052
O       -0.27381244      -1.62828132       0.74372553
H       -0.64258945      -0.24153230       2.25761755
H       -0.30024244       1.59479474       0.89936153
H        1.31375858       0.81134372       1.24402154
H        1.60952459       0.37511072      -1.24887651
