9
Properties=species:S:1:pos:R:3 -167095.00919982238=T pbc="F F F"
C       -0.14215604       0.02750024       1.25151668
C        0.03619197       0.73326925      -0.12907335
C        0.07081597      -0.40167977      -1.18644237
O       -0.71947305      -0.55354677      -2.03489338
O        0.73323798       0.21404424       2.07833569
H       -1.10537805      -0.47100277       1.39204368
H       -0.83661105       1.44306426      -0.20599035
H        1.06144999       1.13147025       0.09315966
H        1.08058199      -0.99099978      -1.20664837
