9
Properties=species:S:1:pos:R:3 -167086.97104987295=T pbc="F F F"
C        1.16901367      -0.06352638       0.58931467
C       -0.05199735      -0.80112339       0.16347566
C       -0.89399136      -0.40028339      -1.05664636
O       -1.56231037       0.55637863      -1.26988137
O        1.37011068       0.63482563       1.55777968
H        1.80346368      -0.09772838      -0.27294635
H        0.37623466      -1.77741341       0.20093266
H       -0.77348936      -0.74410939       0.93348767
H       -1.01138036      -1.22468240      -1.81266738
