9
Properties=species:S:1:pos:R:3 -167094.82002849207=T pbc="F F F"
C       -0.35982689      -0.76779239       0.96335551
C        0.61907012       0.27467263       0.33149150
C       -0.04851089       1.26023664      -0.60116552
O       -0.03604489       1.21121564      -1.80178754
O       -0.13128189      -1.92021641       1.13522351
H       -1.48052891      -0.36001439       1.11167551
H        1.02559613       0.79448963       1.24486452
H        1.40623314      -0.34253639       0.02423349
H       -0.80485690       2.02648866      -0.06146551
