9
Properties=species:S:1:pos:R:3 -167089.08054497928=T pbc="F F F"
C       -0.49077518      -0.47132728       0.87357606
C        0.70439884       0.29937873       0.38508105
C        0.46624284       0.71843274      -1.07086997
O        0.57201684       0.02107773      -2.01626699
O       -1.20216819      -0.51933928       1.86120208
H       -0.52795018      -1.40931230       0.23249405
H        0.84918984       1.35245575       0.79377106
H        1.59890986      -0.36630728       0.46971406
H       -0.01424417       1.82404276      -1.27093597
