9
Properties=species:S:1:pos:R:3 -167096.89211133032=T pbc="F F F"
C        0.28111927      -0.98005798       1.09568951
C        0.46165428       0.44064905       0.42789450
C       -0.26412174       0.83621806      -0.81648952
O        0.35409728       1.27173106      -1.74157354
O       -0.80979674      -1.56548699       1.07579051
H        1.27988929      -1.42818498       1.30953651
H        0.12931027       1.17121306       1.23944051
H        1.48506630       0.77658406       0.35267250
H       -1.36120975       0.60845205      -0.75444252
