9
Properties=species:S:1:pos:R:3 -167095.11877780195=T pbc="F F F"
C       -0.54792228      -0.61361751       0.76264951
C       -0.28530027      -0.74926151      -0.66997951
C        0.58927474       0.58612451      -0.96783652
O        0.11600474       1.66138653      -0.90097452
O        0.11344374      -0.96670752       1.70513453
H       -1.50836229      -0.05050850       0.97107751
H        0.35041474      -1.56363053      -1.06372252
H       -1.22514129      -0.66741651      -1.20704752
H        1.64621976       0.50517851      -1.04245252
