9
Properties=species:S:1:pos:R:3 -167092.33706568563=T pbc="F F F"
C       -0.68728027      -0.70843512       0.90908788
C       -0.41534227      -0.33382511      -0.55761514
C        0.66202275       0.83488291      -0.60635814
O        0.74694975       1.80956392      -1.37252316
O       -0.34925627      -1.60928514       1.60337589
H       -1.51111829      -0.00956911       1.23778089
H        0.26454274      -1.20331413      -0.85515415
H       -1.22350928      -0.10813011      -1.25003116
H        1.40454676       0.61164990       0.23848087
