9
Properties=species:S:1:pos:R:3 -167094.33203309993=T pbc="F F F"
C        0.15640121       0.28885760       0.99321914
C        0.75387822      -0.40306641      -0.20694788
C       -0.23527279      -0.20879141      -1.51487190
O       -1.37849881      -0.00938741      -1.34870890
O        0.75081022       0.30209160       2.02654416
H       -0.83297680       0.91570661       0.89947214
H        1.81205624      -0.11412241      -0.48515988
H        0.75132422      -1.42956243       0.10381613
H        0.19428122      -0.17154141      -2.60054292
