9
Properties=species:S:1:pos:R:3 -167083.58193940853=T pbc="F F F"
C       -0.41259737       0.09606937       1.38294857
C       -0.66095237       0.74751838       0.09705855
C        0.40521265       0.07191937      -0.84055547
O        0.88725366       0.34654037      -1.95480449
O       -0.26190936      -1.14675765       1.39416557
H       -0.19833136       0.81210338       2.23375459
H       -1.52748639       0.22051837      -0.38259746
H       -0.76469037       1.90123240      -0.02226245
H        0.52361565      -1.13461165      -0.54498946
