9
Properties=species:S:1:pos:R:3 -167094.70388932023=T pbc="F F F"
C        0.08575088       0.16521724       1.41879981
C       -0.73317813      -0.18952277       0.28699379
C       -0.22176612       0.06052824      -1.16158923
O       -0.34621712      -0.82419978      -2.01024125
O        1.16468890       0.80480825       1.46499381
H       -0.22134012      -0.17965077       2.41402883
H       -1.12681214      -1.25375778       0.40410680
H       -1.70780515       0.36226524       0.64974980
H        0.41555289       0.94760325      -1.29416123
