9
Properties=species:S:1:pos:R:3 -167094.81617752064=T pbc="F F F"
C        0.08149033      -0.76051761       1.01013275
C       -0.61085868      -0.55188161      -0.40121127
C        0.43881834       0.16439441      -1.23341629
O        0.43816434       1.34930143      -1.43322029
O       -0.38290768      -0.30520260       2.04067177
H        1.19199835      -1.08213962       0.82457575
H       -0.84586369      -1.47125262      -0.99067528
H       -1.46045770       0.13801541      -0.23732927
H        1.31552335      -0.48613261      -1.80151430
