9
Properties=species:S:1:pos:R:3 -167083.8837391112=T pbc="F F F"
C        1.03780872      -0.32582347       0.77471737
C       -0.34416030      -0.54464847       0.03195736
C       -0.69002131       0.38496154      -1.31372067
O       -1.34783132       1.36023456      -1.31634767
O        1.35446673      -0.87566648       1.79922639
H        1.51791273       0.59264355       0.25305636
H       -0.12357230      -1.60991849      -0.38642365
H       -1.27934832      -0.61352348       0.63725337
H       -0.26348830      -0.27875947      -2.13021268
