9
Properties=species:S:1:pos:R:3 -167092.56734349564=T pbc="F F F"
C       -0.33775465       0.57931183       1.33473976
C       -0.65051665      -0.40658519       0.14617174
C        0.30780636      -0.54410119      -1.04502628
O       -0.18861865      -0.42918819      -2.14376830
O        0.82322737       0.76793683       1.74207076
H       -1.07169166       1.32606884       1.84467677
H       -0.82153666      -1.42999620       0.63845874
H       -1.54785167      -0.20858018      -0.33340127
H        1.47155838      -0.64178619      -0.96451328
