9
Properties=species:S:1:pos:R:3 -167092.45843728064=T pbc="F F F"
C        0.16497659       0.72873426       1.16052941
C        0.16392259       0.57878626      -0.42364462
C       -0.82383543      -0.42356576      -0.84715863
O       -0.68469743      -1.26851477      -1.76516264
O        1.16255761       0.44083026       1.87911542
H       -0.74056843       0.91874626       1.61420041
H       -0.15078442       1.52910227      -0.84304463
H        1.13083461       0.42690526      -0.82402163
H       -1.93034845      -0.26389776      -0.44263562
