9
Properties=species:S:1:pos:R:3 -167095.68471444023=T pbc="F F F"
C        0.80599093       0.74907553       0.96828937
C       -0.03839108       0.60158253      -0.25830265
C       -0.82298210      -0.67614149      -0.55079766
O       -1.60773211      -0.69050849      -1.47884767
O        1.68609295       0.01048052       1.35140938
H        0.55844493       1.77854655       1.39463738
H       -0.84378410       1.44905755      -0.19622365
H        0.40744592       1.04830454      -1.18324367
H       -0.70632310      -1.51472451       0.11193135
