9
Properties=species:S:1:pos:R:3 -167099.0752981866=T pbc="F F F"
C       -0.64945649      -0.74713782       0.88742837
C       -0.88181749       0.36769020      -0.07538765
C        0.43047353       0.82807021      -0.66241266
O        0.69823153       0.45667420      -1.76573668
O        0.33128953      -0.87096082       1.62353638
H       -1.53379750      -1.50010383       1.13044537
H       -1.46658050       0.12392620      -1.00556267
H       -1.39329950       1.23809922       0.40311836
H        1.16147354       1.37143522      -0.05277465
