9
Properties=species:S:1:pos:R:3 -167095.93930634554=T pbc="F F F"
C        0.47963679       0.24593350       1.28966601
C       -0.71024223       0.35577250       0.34078400
C       -0.41474022       0.62514851      -1.21300903
O       -0.35405722      -0.29239951      -1.99595904
O        0.95198780      -0.83860652       1.61031202
H        0.91190380       1.27278452       1.46643602
H       -1.17581324      -0.64225752       0.54409000
H       -1.46171024       1.09308051       0.65250800
H       -0.07995222       1.61833252      -1.51293404
