9
Properties=species:S:1:pos:R:3 -167086.79987337702=T pbc="F F F"
C       -0.25023729      -0.01960927       1.34248213
C       -0.03530428      -0.78415728      -0.03918189
C        0.94465073       0.06687773      -0.98166591
O        0.68871473       0.57284574      -2.11199293
O       -1.30083531       0.12792373       1.82064814
H        0.77539773       0.09093873       1.70313414
H        0.18081672      -1.89275930       0.16805111
H       -0.98194430      -0.78711928      -0.66424790
H        1.89262775       0.24122873      -0.41272890
