9
Properties=species:S:1:pos:R:3 -167088.9517331595=T pbc="F F F"
C        0.91134615       0.52438025       0.83007092
C        0.84924315       0.24503125      -0.66498410
C       -0.40858287      -0.40366276      -1.15880111
O       -1.30478989      -1.12230678      -0.62699210
O        0.03366613       0.77885226       1.58434494
H        2.05918817       0.43368225       1.10866993
H        0.80368915       1.31420327      -0.99349611
H        1.75988416      -0.31051476      -1.20299511
H       -0.54721388      -0.34140576      -2.27407713
