9
Properties=species:S:1:pos:R:3 -167096.5266520593=T pbc="F F F"
C        0.19363042       0.71127255       1.08411334
C        0.15122542       0.71284956      -0.43846469
C       -0.84985459      -0.40030346      -0.78402769
O       -0.57357559      -1.24564548      -1.62043071
O        1.07770244       0.31190655       1.75022435
H       -0.80274659       1.02176456       1.54603435
H       -0.42037559       1.65239357      -0.63771669
H        1.04297344       0.36489055      -1.00110170
H       -1.80777661      -0.41036746      -0.31947969
