9
Properties=species:S:1:pos:R:3 -167086.2206305186=T pbc="F F F"
C        0.76512457      -0.31650584       1.14334827
C        0.13281856       0.58117617       0.16464825
C       -0.77124345       0.25961217      -0.99138577
O       -1.97765047       0.43049517      -1.12076277
O        1.84897459      -0.94634685       0.84923227
H        0.14905056      -0.47595985       2.03686229
H       -0.45541245       1.29478919       0.68449426
H        0.85315757       1.17429918      -0.36484675
H       -0.01320744      -0.04872984      -1.81695378
