9
Properties=species:S:1:pos:R:3 -167088.88929700796=T pbc="F F F"
C       -0.32317261       0.00908431       1.42035144
C        0.48509040      -0.32095270       0.06646641
C        0.33886140       0.64871532      -1.14567461
O        0.87445441       0.19941431      -2.12244163
O       -1.35065963      -0.52023870       1.78961344
H        0.17076639       0.88128732       1.99359845
H        1.42358742      -0.17133370       0.46558842
H        0.09013339      -1.28532572      -0.29048459
H       -0.08945661       1.65630934      -0.94841160
