9
Properties=species:S:1:pos:R:3 -167093.29536235394=T pbc="F F F"
C        0.51175567       0.39058457       0.89915965
C        0.07119967      -0.96458145       0.37291264
C       -0.38020534      -0.83555745      -1.10536438
O       -0.16155934       0.17878257      -1.81690640
O       -0.07408334       1.13918859       1.67113366
H        1.50360269       0.64934158       0.57885365
H        1.14921269      -1.52776446       0.27300064
H       -0.43748134      -1.62961446       1.07702865
H       -0.88962335      -1.62579946      -1.60032639
