9
Properties=species:S:1:pos:R:3 -167098.21247678422=T pbc="F F F"
C        0.84138904      -0.14802013       1.23957775
C        0.36371303       0.67667289      -0.04473427
C       -0.81584499       0.06707988      -0.86674729
O       -1.78066200       0.62812889      -1.34340130
O        1.39150805      -1.18506914       1.04659275
H        0.74781504       0.37449088       2.23737677
H        0.16435703       1.73455891       0.27311473
H        1.21873605       0.65559989      -0.82991329
H       -0.58956998      -1.01889014      -0.87659629
