9
Properties=species:S:1:pos:R:3 -167095.58339810284=T pbc="F F F"
C        0.76493635      -0.20784376       0.92812689
C       -0.11097066      -0.63710377      -0.28121713
C       -1.03748968       0.23519025      -1.09925515
O       -1.46792168       1.34769627      -0.74170114
O        1.81682337      -0.76319977       1.20397789
H        0.42887135       0.80928626       1.21783289
H        0.52168935      -1.10183178      -1.10269915
H       -0.63416267      -1.54423578       0.00411287
H       -1.28716668      -0.17932676      -2.06991516
