9
Properties=species:S:1:pos:R:3 -167088.1955435339=T pbc="F F F"
C       -0.89607799      -0.51142435       0.88573906
C        0.29266503       0.24908667       0.29639605
C        0.46019604       0.24037267      -1.26786398
O        0.85899304       1.21699768      -1.82023099
O       -0.76799398      -1.21510136       1.87221008
H       -1.87694400      -0.28962034       0.42040105
H        0.60101204       1.32469768       0.56635905
H        1.27662605      -0.06470134       0.91000106
H        0.26034403      -0.73893835      -1.70094799
