9
Properties=species:S:1:pos:R:3 -167095.73199374758=T pbc="F F F"
C        1.00841717      -0.52718308       0.32708458
C       -0.38518186       0.19297694       0.61486558
C       -1.13541187       0.72262395      -0.55060744
O       -1.48902388      -0.04508707      -1.44335845
O        1.95741518      -0.33069707       1.07955259
H        0.95749217      -1.28792509      -0.49458244
H       -1.08762487      -0.41282407       1.18106459
H       -0.10451685       1.13602295       1.13053659
H       -1.10066187       1.90386897      -0.70280644
