9
Properties=species:S:1:pos:R:3 -167098.59986244896=T pbc="F F F"
C       -0.03684491      -0.21930479       1.06018150
C       -0.35974692      -0.57500380      -0.39449952
C        0.29808209       0.19964522      -1.51610654
O        0.50395010       1.36668424      -1.28411054
O       -0.37517292      -0.82511480       2.05582552
H        0.57179610       0.66252423       1.19998250
H       -0.52562192      -1.68091181      -0.46927853
H       -1.39390094      -0.21047379      -0.40935552
H        0.47687810      -0.28568379      -2.44316556
