9
Properties=species:S:1:pos:R:3 -167091.71770576152=T pbc="F F F"
C        0.56798567      -0.19673861       0.84602422
C       -0.53733535      -0.65367962      -0.06273279
C       -0.76805836       0.30678840      -1.11178681
O        0.05231766       0.95784941      -1.65123982
O        0.65180267      -0.45443061       1.96213224
H        1.22770668       0.52995440       0.24288621
H       -0.23655135      -1.57595863      -0.51403380
H       -1.48569037      -0.91011062       0.42950922
H       -1.90017437       0.43940040      -1.18111181
