9
Properties=species:S:1:pos:R:3 -167092.29443740542=T pbc="F F F"
C        0.95293850       0.49461931       1.10177509
C        0.64311449      -0.08958170      -0.28394594
C       -0.72301953      -0.05692070      -0.94566595
O       -0.85947053      -0.94501372      -1.78871596
O        0.02663748       0.64193831       1.88474810
H        1.94364852       0.84114932       1.46143609
H        1.45532251       0.22086330      -0.95283195
H        0.82868050      -1.14963672      -0.06593393
H       -1.40504654       0.75268231      -0.44463894
