9
Properties=species:S:1:pos:R:3 -167092.16095954497=T pbc="F F F"
C        0.93031344      -0.36653992       0.33322510
C       -0.12195558       0.52865210       0.59549410
C       -1.21645260       0.53757310      -0.43539492
O       -1.14121260       0.36459510      -1.61983894
O        1.54957845      -1.03968693       1.15589511
H        0.96838844      -0.47416692      -0.74978692
H       -0.61490359       0.62988610       1.59050412
H        0.32339143       1.56309612       0.56860210
H       -2.29882462       0.66434910       0.07987809
