9
Properties=species:S:1:pos:R:3 -167097.9028546437=T pbc="F F F"
C       -0.68546995       0.22820464       1.13607932
C        0.54307107      -0.04965237       0.34908530
C        0.55855307       0.55745565      -1.06648872
O        0.93837808      -0.07265737      -2.01172874
O       -1.34744696      -0.63262638       1.62652333
H       -0.96417195       1.29739866       1.29680932
H        1.31206309       0.56447165       0.76819031
H        1.02970408      -1.02202538       0.33368530
H        0.15954807       1.58999966      -1.27029772
