9
Properties=species:S:1:pos:R:3 -167087.4982002747=T pbc="F F F"
C       -0.13906403      -1.08860301       0.80604378
C       -0.16737103       0.26193301       0.22228676
C        0.43058198       0.69881402      -1.14662126
O        0.92878799       1.82937604      -1.34060726
O       -1.01339604      -1.71393002       1.44881979
H        0.85146399      -1.69523602       0.59019377
H       -1.20272204       0.47785402       0.08540776
H        0.06654698       0.79437502       1.10051778
H        0.14930598       0.11315401      -2.08506328
