9
Properties=species:S:1:pos:R:3 -167098.01676947178=T pbc="F F F"
C        1.21715836      -0.40477866       0.40982485
C        0.02575434       0.62698836       0.38385485
C       -1.21811668       0.19145935      -0.50043917
O       -1.47060569       0.68856336      -1.62372619
O        1.47240836      -1.08871967       1.36867886
H        1.71851737      -0.52587766      -0.60439017
H       -0.37052867       0.84853036       1.37769486
H        0.43090835       1.47781838      -0.21137616
H       -2.10274870      -0.37518666      -0.00570716
