9
Properties=species:S:1:pos:R:3 -167089.43415436542=T pbc="F F F"
C        0.62022908       0.51796387       0.96848739
C        0.20041607       0.18048086      -0.51764964
C       -1.13343495      -0.23011914      -0.72717764
O       -1.48972396      -1.41723316      -0.95250565
O        1.75429410       0.97775288       1.19769439
H       -0.05663993       0.32089087       1.89878940
H        0.51609108       1.16722188      -1.07854465
H        0.87374709      -0.65279915      -0.97249565
H       -1.80778396       0.56328487      -0.44874064
