9
Properties=species:S:1:pos:R:3 -167097.26587476474=T pbc="F F F"
C       -0.02105524      -0.25586604       1.17145406
C       -0.63240025       0.27533397      -0.21434496
C        0.25780976      -0.01042503      -1.42042998
O        1.25193278       0.60892998      -1.59340599
O       -0.87431426      -0.62761004       1.98653207
H        1.05347478      -0.08190503       1.44723507
H       -1.66114527      -0.12661603      -0.14823196
H       -0.73981826       1.32608099       0.01809904
H        0.06529476      -0.92876605      -2.03961600
