9
Properties=species:S:1:pos:R:3 -167093.58724457506=T pbc="F F F"
C        0.40380221      -0.29457890       1.22677989
C       -0.46541581       0.25589511       0.10326087
C        0.27763020       0.43136512      -1.17896615
O       -0.18027480       0.44923012      -2.33607717
O       -0.00477480      -0.86191691       2.17707191
H        1.38183022       0.11342411       1.21255989
H       -1.35260882      -0.39028190      -0.01734513
H       -0.87312282       1.26097213       0.43156788
H        1.20870022       0.88993512      -0.90207315
