9
Properties=species:S:1:pos:R:3 -167094.15271457608=T pbc="F F F"
C        0.99908432      -0.77212275       0.54478197
C       -0.26055871      -0.68831075      -0.21864804
C       -0.32440771       0.58553527      -1.00688906
O       -1.43327373       1.20001128      -1.07800606
O        1.07046032      -0.38391675       1.72234099
H        1.80715533      -1.14550576      -0.07571204
H       -0.32233471      -1.61614177      -0.85594806
H       -1.17264072      -0.86884276       0.36191597
H        0.51510131       1.09574128      -1.55068407
