9
Properties=species:S:1:pos:R:3 -167095.50703339564=T pbc="F F F"
C        0.38079486       0.91808685       0.41876408
C        0.72994387      -0.08928917      -0.67298694
C       -0.45899815      -1.02959619      -0.83779894
O       -1.59420117      -0.70447818      -0.44791594
O        0.97836387       0.90428985       1.47893410
H       -0.43565215       1.55839286       0.34009508
H        0.91265387       0.22613084      -1.74995096
H        1.70024488      -0.56595818      -0.61496994
H       -0.16362515      -1.99884820      -1.33566395
