9
Properties=species:S:1:pos:R:3 -167088.4499271175=T pbc="F F F"
C       -0.05502743      -0.35346072       1.23876148
C        0.45284758      -0.61144272      -0.16736855
C       -0.05786743       0.60469730      -1.03377756
O        0.76025358       0.99777331      -1.84518158
O       -1.07118045      -0.68519272       1.85216049
H        0.41177058       0.62672930       1.54203548
H        1.53642060      -0.78104373      -0.30085255
H        0.06846757      -1.54968074      -0.64248055
H       -1.12978245       1.03202731      -1.15734256
