9
Properties=species:S:1:pos:R:3 -167093.3061377603=T pbc="F F F"
C        0.14873164      -0.32844126       1.38350811
C        0.26250664      -0.87390527      -0.05511292
C       -0.19190237       0.02681974      -1.17817094
O        0.45212664       0.63248875      -1.97123095
O       -0.63819038       0.48544275       1.82074711
H        0.82384065      -1.04962128       2.11187212
H        1.31167266      -1.31559228      -0.08138192
H       -0.48043738      -1.67101529      -0.19455392
H       -1.31370439       0.29064075      -1.23634294
