9
Properties=species:S:1:pos:R:3 -167092.9622619468=T pbc="F F F"
C        0.11316952      -0.01140451       0.96367135
C        0.30244453       0.78481850      -0.31925368
C       -0.55328549       0.15613049      -1.37892969
O       -0.57897149      -1.07831753      -1.39755669
O        0.70016753       0.25417149       2.05529937
H       -0.56137649      -0.97046753       0.82006234
H        0.31872053       1.86095052       0.00448633
H        1.35443754       0.47609649      -0.59601468
H       -1.39602050       0.64528950      -1.92167870
