9
Properties=species:S:1:pos:R:3 -167092.731211363=T pbc="F F F"
C        0.22731154      -0.16353001       1.00653038
C        0.49834755       0.71232700      -0.19332064
C       -0.09742246       0.13295199      -1.45573767
O       -0.83801448      -0.83562803      -1.58620367
O        0.24948354       0.19475599       2.21048140
H       -0.10611646      -1.12753703       0.90865938
H        0.05196054       1.73859702      -0.19008564
H        1.60993357       0.89982700      -0.53053465
H        0.30432954       0.54274900      -2.44530968
