9
Properties=species:S:1:pos:R:3 -167103.5169731837=T pbc="F F F"
C        1.02625430       0.05810532       0.28589836
C       -0.46869773       0.23654632       0.65687137
C       -1.41964075      -0.22594768      -0.42974065
O       -1.03453574      -0.60704969      -1.50735067
O        1.84757831       0.52417733       1.03126237
H        1.24816730      -0.51503369      -0.64143066
H       -0.69431573      -0.28790569       1.59022038
H       -0.65654673       1.30959634       0.87630937
H       -2.53619177      -0.00945868      -0.37778165
