9
Properties=species:S:1:pos:R:3 -167091.04558202968=T pbc="F F F"
C        0.63004615       1.14320800       0.52114632
C       -0.70896488       0.55649899       0.29821331
C       -0.66231687      -0.88794204      -0.24264270
O       -0.95012388      -1.22472904      -1.38641272
O        1.62978517       0.47036699       0.82658532
H        0.73169115       2.28454502       0.62678232
H       -1.01216088       0.33435899       1.33454333
H       -1.28542089       1.39108900      -0.41541870
H       -0.39506187      -1.70326605       0.47209032
