9
Properties=species:S:1:pos:R:3 -167098.4233249248=T pbc="F F F"
C       -0.09628617      -0.61620030       0.84928032
C        0.48326084       0.68955373       0.22034731
C        0.18778684       0.78768073      -1.27144071
O       -0.38480717      -0.08785229      -1.92103672
O       -0.16951317      -0.70390030       2.08858335
H       -0.23137317      -1.51641331       0.24066431
H       -0.00656417       1.59793274       0.87549132
H        1.57506886       0.59512472       0.40485932
H        0.61674784       1.63685774      -1.77714772
