9
Properties=species:S:1:pos:R:3 -167094.41724133096=T pbc="F F F"
C       -0.15186307       0.06433671       1.41241445
C       -0.35984307      -0.80700431       0.23623043
C        0.05756394      -0.02748330      -1.00556759
O       -0.42677107      -0.09232030      -2.12246061
O        0.82243695       0.81878872       1.54930045
H       -1.08967008       0.09319671       2.07047746
H        0.52603495      -1.54607432       0.16102943
H       -1.36403509      -1.28268332       0.23823443
H        1.05555895       0.37603471      -1.03028459
