9
Properties=species:S:1:pos:R:3 -167095.11802081973=T pbc="F F F"
C        0.93640940      -0.66574868       0.86131508
C       -0.47171363      -0.10847967       0.59321307
C       -0.71436963       0.54432535      -0.74817295
O       -1.73857265       0.25328634      -1.45921896
O        1.96754941      -0.04310866       0.78712408
H        1.06413940      -1.69869869       1.34396308
H       -1.12697364      -0.92855668       0.84057708
H       -0.61745563       0.79101835       1.33217908
H        0.01908638       1.23798036      -1.26053596
