9
Properties=species:S:1:pos:R:3 -167087.43180830247=T pbc="F F F"
C        0.61061308      -0.05492595       1.13340129
C       -0.56143394       0.77147507       0.51123528
C       -0.96071095       0.22926506      -0.94476775
O       -0.84763695      -0.93879996      -1.32171475
O        1.71352010       0.05403206       0.67979128
H        0.50561008      -0.95906396       1.78837230
H       -1.51586396       1.10449607       1.01431429
H       -0.17402494       1.80009109       0.47203028
H       -1.70446196       0.83473807      -1.42014375
