9
Properties=species:S:1:pos:R:3 -167100.3303983137=T pbc="F F F"
C       -0.17788742      -1.11198282       0.97497602
C       -0.49067243      -0.61855981      -0.46695601
C        0.29914358       0.60368121      -0.76504901
O       -0.08668642       1.45012822      -1.52830803
O        0.42564559      -0.37549481       1.76934403
H       -0.63649443      -2.09724084       1.29399202
H       -0.00169042      -1.39714583      -1.14477502
H       -1.60943145      -0.70951881      -0.60979201
H        1.26666460       0.56603921      -0.30444100
