9
Properties=species:S:1:pos:R:3 -167094.65229857183=T pbc="F F F"
C       -0.47271846      -0.62554540       1.15228890
C        0.52887956      -0.48370939       0.05216988
C        0.13433055       0.45057562      -1.08101114
O        0.63730856       0.55334862      -2.17532516
O       -0.81056847       0.05675861       2.08278791
H       -0.96893147      -1.58276941       0.97918189
H        1.52049757      -0.01422939       0.29414688
H        0.59966656      -1.50033341      -0.46400213
H       -0.66962347       1.25726764      -0.81056314
