9
Properties=species:S:1:pos:R:3 -167096.29633339777=T pbc="F F F"
C        0.44926966      -0.26638180       1.19596942
C       -0.34794335       0.53304421       0.25785641
C        0.10392966       0.79066922      -1.26624162
O       -0.08774334       0.04491720      -2.17638564
O       -0.08321634      -1.05235881       1.98434844
H        1.57398168       0.05463620       1.33765143
H       -1.37667337       0.06010120       0.12218240
H       -0.51484035       1.52196823       0.71576742
H        0.58683867       1.76265723      -1.36136462
