9
Properties=species:S:1:pos:R:3 -167090.6887105085=T pbc="F F F"
C       -0.56364642      -0.58303259       0.80644961
C       -0.03924841      -0.52354459      -0.55515642
C        0.81486260       0.72736744      -0.96097242
O        0.43116459       1.81060345      -0.95961642
O       -0.59562942      -1.46456460       1.61928762
H       -1.07416043       0.36874343       1.02831561
H        0.30039659      -1.58551760      -0.74781242
H       -0.99461943      -0.33199858      -1.04035142
H        1.85469562       0.57207043      -1.25958343
