9
Properties=species:S:1:pos:R:3 -97082.42606417173=T pbc="F F F"
C       -0.02735474      -0.53628528      -0.02855374
C       -1.30057136       0.25996370       0.04626626
O        1.20492765       0.29331698      -0.02759318
H       -0.04409583      -1.34713992       0.75930297
H        0.09244943      -1.01020184      -0.93164362
H       -1.92611256      -0.51626621      -0.34732362
H       -1.76719378       0.61172393       0.92990034
H       -1.47586033       0.99237797      -0.80981371
H        1.80912536      -0.09553347       0.62660149
