9
Properties=species:S:1:pos:R:3 -97089.77442078189=T pbc="F F F"
C       -0.00558953       0.55483593      -0.02668986
C       -1.28521163      -0.24225595      -0.00252071
O        1.15417241      -0.31355378      -0.01436281
H        0.05031142       1.21715448      -0.80576596
H        0.03998710       1.09780684       0.95862814
H       -2.05548750       0.46161137       0.32494950
H       -1.54382609      -0.67401521      -0.95911452
H       -1.42258563      -1.04476925       0.78813973
H        1.98339515       0.19670156       0.26891653
