9
Properties=species:S:1:pos:R:3 -97064.64863851777=T pbc="F F F"
C        0.01721608      -0.52640298      -0.03762300
C       -1.35133562       0.27976026       0.01513180
O        1.23729945       0.20612046       0.03514214
H       -0.25573334      -1.31055645       0.73717677
H       -0.06889837      -1.10555211      -1.02646780
H       -0.97191031       0.89144397       0.79421832
H       -1.72228441       0.84457161      -0.81559813
H       -1.80664299      -0.72919222       0.33889267
H        1.07376207       1.07473653      -0.31815414
