9
Properties=species:S:1:pos:R:3 -97077.06952585363=T pbc="F F F"
C       -0.00972911      -0.59060209      -0.00473639
C       -1.28144165       0.27019143      -0.02604309
O        1.22226563       0.23934694       0.00901652
H        0.08168882      -1.14132374       0.91529169
H       -0.00643408      -1.37359723      -0.79708718
H       -2.04189745      -0.08954402      -0.71095802
H       -1.95793612       0.16122155       1.03801654
H       -1.19702750       1.33824950      -0.07470135
H        1.09711292       1.12145907      -0.14717425
