9
Properties=species:S:1:pos:R:3 -97083.70833565846=T pbc="F F F"
C       -0.01151834      -0.56471075       0.01206514
C       -1.33252655       0.24531675      -0.02042441
O        1.22162216       0.31607548       0.02523596
H        0.04126595      -1.14197933       0.98976123
H        0.02835458      -1.17046741      -0.96272711
H       -2.33123956      -0.34947338       0.23653841
H       -1.40114049       0.96293619       0.77693755
H       -1.51770346       0.77577865      -0.97293740
H        1.79574505      -0.29017239      -0.36855332
