9
Properties=species:S:1:pos:R:3 -97091.50128170387=T pbc="F F F"
C       -0.00668726      -0.58932146      -0.01215886
C       -1.27489876       0.26805532      -0.01104322
O        1.21607901       0.24092123       0.00722130
H        0.07299430      -1.27932331       0.86627952
H       -0.00307526      -1.10859954      -0.98186199
H       -2.13323332      -0.42472809       0.01371985
H       -1.39314887       0.69046146       1.01932665
H       -1.41680286       1.00043347      -0.75771138
H        0.83283478       1.12342227       0.00190327
