9
Properties=species:S:1:pos:R:3 -97089.09727468333=T pbc="F F F"
C       -0.00373128      -0.48931256       0.00164979
C       -1.32988186       0.23477007      -0.01287279
O        1.19723090       0.24696334       0.05305971
H        0.04065950      -1.13524582       0.92654712
H        0.03562716      -1.18308727      -0.89774210
H       -1.02478253       1.25658291       0.27591883
H       -1.86155381       0.19565639      -1.01789131
H       -1.96410131      -0.21591374       0.78461504
H        1.65233092       0.19331387      -0.77991323
