9
Properties=species:S:1:pos:R:3 -97087.77378376525=T pbc="F F F"
C       -0.04938918       0.59633271       0.01803301
C       -1.25056996      -0.29113533      -0.00092476
O        1.14447463      -0.28762718       0.04567317
H       -0.08866199       1.23731043      -0.88460318
H        0.10143837       1.14870878       0.91137508
H       -1.05052337      -0.92582253      -0.98672608
H       -1.32644068      -0.82828832       0.91497498
H       -2.10393974       0.35279534      -0.19264619
H        1.78287525      -0.05378451      -0.69094593
