9
Properties=species:S:1:pos:R:3 -97079.70825242109=T pbc="F F F"
C       -0.00561448      -0.63096320      -0.01812653
C       -1.24930519       0.28576028      -0.00140002
O        1.10715836       0.31297524      -0.01569195
H       -0.02665988      -1.26225138       0.85933861
H        0.08757577      -1.11710865      -1.00710692
H       -2.06780809      -0.56165959       0.09664365
H       -1.26298581       0.84940173       0.98867363
H       -1.35412150       1.12822557      -0.81309693
H        1.99470651       0.10652016       0.35708993
