9
Properties=species:S:1:pos:R:3 -97086.50871224911=T pbc="F F F"
C       -0.03706299      -0.61780750       0.01674029
C       -1.22932909       0.27186008      -0.03697348
O        1.11878263       0.29872004       0.04426241
H        0.09927728      -0.98487232       0.99383292
H        0.00946450      -1.27786417      -0.82065832
H       -2.02502643      -0.11410034       0.59695037
H       -1.00916540       1.17671973       0.50248995
H       -1.51215256       0.47338117      -1.02616399
H        1.76042394       0.10496889      -0.70801454
