9
Properties=species:S:1:pos:R:3 -97086.30410616154=T pbc="F F F"
C        0.02183048       0.56618313      -0.01695941
C       -1.27745030      -0.25501779       0.02797648
O        1.13321720      -0.30566508      -0.02724052
H       -0.04327315       1.15886361      -0.92614922
H       -0.01513619       1.28903803       0.82169276
H       -2.02169157       0.03799834      -0.82723368
H       -1.19586786      -1.36913878      -0.06590349
H       -1.75027543       0.02085491       0.92082697
H        1.99171485       0.00851815       0.37791499
