9
Properties=species:S:1:pos:R:3 -97074.72882755336=T pbc="F F F"
C       -0.03566199       0.50154845      -0.03246308
C       -1.25943604      -0.25032781       0.01345244
O        1.16826836      -0.27552696      -0.04149355
H        0.21819257       1.33396832      -0.75016662
H       -0.16250038       1.15617529       0.82252904
H       -2.16352363       0.38306601      -0.40601596
H       -1.20979810      -1.14020771      -0.57419768
H       -1.59408546      -0.45590661       1.04258038
H        1.79095871       0.10447638       0.75015998
