9
Properties=species:S:1:pos:R:3 -97087.98408973555=T pbc="F F F"
C       -0.02753282       0.59202289      -0.00163893
C       -1.26095396      -0.27742521      -0.00056309
O        1.16471978      -0.25532021       0.05564915
H        0.05847507       1.24015165      -0.90821218
H        0.10407868       1.14496446       0.91907374
H       -2.23867099       0.31218314      -0.06983190
H       -1.16654591      -0.75051839      -0.97419444
H       -1.41686558      -0.97766831       0.90008271
H        1.51637208      -0.66285617      -0.72389122
