9
Properties=species:S:1:pos:R:3 -97092.31677407942=T pbc="F F F"
C        0.02198313      -0.53496229      -0.01342264
C       -1.29578214       0.24054303       0.00572070
O        1.16179156       0.26782391       0.06326366
H        0.12807843      -1.24663948       0.82534666
H        0.16111314      -1.26961044      -0.88923661
H       -2.12390680      -0.47296004       0.19164432
H       -1.16872506       0.98278545       0.80075392
H       -1.53931897       0.77645815      -0.94139776
H        1.27119080       0.48500621      -0.89944510
