9
Properties=species:S:1:pos:R:3 -97078.76282067006=T pbc="F F F"
C       -0.05772742      -0.55073256      -0.01796130
C       -1.29960875       0.24793487      -0.02470325
O        1.20870647       0.25596826       0.06573293
H       -0.01706171      -1.15535818       0.88646174
H        0.06102275      -1.30473749      -0.73863046
H       -2.26216518      -0.37801403       0.17515599
H       -1.16740267       1.10661851       0.75530126
H       -1.22094984       1.06045111      -0.79833665
H        1.58507718       0.21399824      -0.81518171
