9
Properties=species:S:1:pos:R:3 -97076.57663046519=T pbc="F F F"
C       -0.04453438      -0.55437799      -0.05415742
C       -1.32973760       0.26633116       0.02453023
O        1.26062326       0.22836254       0.04960183
H        0.13016603      -1.01994854       1.02116110
H       -0.19989060      -1.43168421      -0.72187050
H       -1.29676978       1.06564557      -0.79182722
H       -2.28230931      -0.25739812      -0.19174348
H       -1.25597717       0.72784203       1.06850571
H        1.26099590       0.72098833      -0.81867680
