9
Properties=species:S:1:pos:R:3 -97089.56588297663=T pbc="F F F"
C       -0.02691098      -0.58593612      -0.03800432
C       -1.26606133       0.29090965       0.01217350
O        1.17261701       0.24195114       0.05297009
H        0.14742226      -1.26255171       0.85072730
H        0.08941895      -1.30704152      -0.89874427
H       -1.12498448       0.87699979      -0.86764028
H       -2.14550018      -0.41302971       0.01061351
H       -1.23387481       0.77567813       0.96410838
H        1.05243519       1.00283447      -0.59217528
