9
Properties=species:S:1:pos:R:3 -97078.84366902725=T pbc="F F F"
C        0.03854376       0.56030199       0.00031718
C       -1.38440457      -0.23567618      -0.01060015
O        1.18826593      -0.32467705       0.00938461
H        0.03494365       1.19219551      -0.94478224
H        0.20476104       1.05776840       0.92473853
H       -1.56959367      -1.01603005       0.76588669
H       -2.09571994       0.58327628       0.36374835
H       -1.47669186      -0.68990427      -1.07364229
H        2.06859222       0.16029051      -0.06245198
