9
Properties=species:S:1:pos:R:3 -97082.28108904429=T pbc="F F F"
C       -0.00872482      -0.62710458      -0.03222584
C       -1.15600746       0.28548269       0.02346744
O        1.02204457       0.34305869       0.00378492
H        0.02509923      -1.47505787       0.78621243
H        0.06761059      -1.18629052      -0.89739820
H       -2.05323364      -0.28476311      -0.25394353
H       -1.32344764       0.60997418       1.01244593
H       -0.93236639       1.12587701      -0.80172078
H        1.86401647      -0.16669673       0.19861950
