9
Properties=species:S:1:pos:R:3 -97093.17875306138=T pbc="F F F"
C        0.01394695      -0.56657895       0.00264528
C       -1.25203743       0.24087436      -0.02099842
O        1.10542047       0.32383164       0.02873636
H       -0.03502883      -1.33726122       0.81190105
H        0.12148408      -1.18254123      -0.86082095
H       -1.28248140       1.07608480       0.72500828
H       -1.42302038       0.77422437      -0.91419623
H       -2.03174843      -0.43203725       0.27233204
H        1.84870120      -0.15980380      -0.27176332
