9
Properties=species:S:1:pos:R:3 -97080.3361046786=T pbc="F F F"
C       -0.02881518       0.53020420      -0.00940342
C       -1.31270849      -0.22854894       0.00220930
O        1.24178253      -0.22813892       0.00581440
H        0.22176511       1.21590341      -0.83172315
H        0.06068121       1.30551929       0.82747943
H       -1.25708383      -1.13800676       0.68819156
H       -2.10618662       0.36670623       0.35889060
H       -1.47438239      -0.65839363      -1.10377555
H        0.82050909      -1.06275579       0.05431737
