9
Properties=species:S:1:pos:R:3 -97089.37602693826=T pbc="F F F"
C       -0.03223046      -0.54392982      -0.01968248
C       -1.30087209       0.25436555       0.01857312
O        1.19362248       0.23955995       0.05868527
H        0.09430655      -1.16402570       0.82722729
H        0.13120923      -1.23772227      -0.88981048
H       -2.05432747      -0.45784913       0.04926882
H       -1.07757501       0.97556492       0.82534257
H       -1.45115963       0.87392238      -0.88542325
H        1.28691513       0.65591156      -0.84477391
