9
Properties=species:S:1:pos:R:3 -97081.97247508023=T pbc="F F F"
C       -0.01808543       0.58524455      -0.01905906
C       -1.31035858      -0.23804166      -0.01339324
O        1.18747024      -0.26183323       0.06279310
H        0.19169220       1.28988328      -0.94780041
H        0.12802881       1.10875331       0.90043743
H       -2.23847135       0.24714899      -0.05970011
H       -1.19612894      -1.16771190      -0.77168550
H       -1.34030858      -0.79223080       1.00104467
H        1.42672864      -0.66444477      -0.73246422
