9
Properties=species:S:1:pos:R:3 -97091.14916397013=T pbc="F F F"
C       -0.01541675      -0.52350415      -0.03321129
C       -1.24385717       0.24546132      -0.00151247
O        1.16525529       0.21155397       0.05333330
H        0.01604303      -1.24504231       0.75883404
H       -0.03419094      -1.18495016      -0.92336582
H       -1.29671282       0.74863487       0.98145875
H       -1.34504040       1.15665551      -0.62411572
H       -2.04064562      -0.48092980      -0.03895274
H        1.20105857       0.95872519      -0.58684685
