9
Properties=species:S:1:pos:R:3 -97082.49462574621=T pbc="F F F"
C       -0.03012995       0.52039103      -0.04604249
C       -1.29845789      -0.24171929       0.01216985
O        1.21681148      -0.21141628       0.05026446
H        0.08777981       1.08826685      -0.91239520
H        0.01856602       1.39070764       0.72452102
H       -2.20508317       0.20659463       0.18819467
H       -1.49520301      -0.81797852      -0.91164161
H       -1.12464257      -0.80307806       0.98448278
H        1.22616952      -1.02727939      -0.46757936
