9
Properties=species:S:1:pos:R:3 -97079.80943724207=T pbc="F F F"
C       -0.00420270       0.50440307       0.00664255
C       -1.33288458      -0.26123409      -0.01923458
O        1.19065345      -0.27637025       0.03919045
H       -0.12745797       1.34708246      -0.79398365
H       -0.09346183       1.19414299       0.98298131
H       -2.12584595       0.49218157      -0.04969620
H       -1.26192506      -0.91586239      -0.91779205
H       -1.22208598      -0.79238995       0.93831699
H        1.85471162       0.16567037      -0.63187609
