9
Properties=species:S:1:pos:R:3 -97079.91672433552=T pbc="F F F"
C       -0.01368212      -0.57857920       0.00426798
C       -1.30417424       0.27583078      -0.04192086
O        1.18194511       0.29417570       0.05850477
H       -0.05462562      -1.38915961       0.76011362
H       -0.01823733      -1.13151047      -0.97914978
H       -2.10034377      -0.37793694       0.35197086
H       -1.15097592       0.85632521       1.01975265
H       -1.52188588       0.90106547      -0.93730951
H        1.77923173       0.07720814      -0.69556464
