9
Properties=species:S:1:pos:R:3 -97076.12763108606=T pbc="F F F"
C        0.00637291      -0.59570315      -0.03621244
C       -1.26466511       0.27609998      -0.00940132
O        1.17550473       0.25295246       0.05797593
H       -0.06754185      -1.31804628       0.75498660
H        0.15098310      -1.31339853      -0.83247597
H       -1.14085130       1.01642894       0.69728482
H       -1.79583995       0.68097303      -0.78324389
H       -2.14913606      -0.29108300       0.39425861
H        1.32854270       1.01604690      -0.60781493
