9
Properties=species:S:1:pos:R:3 -97085.54399519737=T pbc="F F F"
C       -0.11021274       0.64473547      -0.00752404
C       -1.18381529      -0.32151550       0.01497779
O        1.19818741      -0.22745422       0.01831881
H       -0.06545829       1.25319173      -0.91570906
H       -0.02428751       1.30489094       0.85505208
H       -0.98021056      -1.13967142       0.76744767
H       -2.20528939       0.20702631       0.12791104
H       -1.16554661      -0.82301924      -0.93033775
H        0.83245879      -1.04107959      -0.28384736
