9
Properties=species:S:1:pos:R:3 -97088.42430324457=T pbc="F F F"
C        0.01208127      -0.61095592       0.01047110
C       -1.29210235       0.28909426      -0.00515191
O        1.15954104       0.31326627       0.04030806
H       -0.03296889      -1.26922761       0.85898042
H       -0.01619524      -1.14252346      -0.85922203
H       -1.43759958       0.81281621      -0.96037477
H       -2.08086438      -0.49880362      -0.08744865
H       -1.49393594       0.87803670       0.89170197
H        1.89979802       0.08029039      -0.54668976
