9
Properties=species:S:1:pos:R:3 -97089.88625688206=T pbc="F F F"
C        0.05066387      -0.53869392      -0.01437142
C       -1.32335815       0.23894806       0.01527007
O        1.19544202       0.23439293       0.02928672
H        0.14174791      -1.13490914       0.81513023
H        0.03332182      -1.27421824      -0.83522388
H       -1.67382691       0.67907042       0.93559544
H       -1.34456198       0.91344884      -0.79928726
H       -2.11143205      -0.44806668      -0.23693735
H        1.13597157       1.11371152      -0.35477876
