9
Properties=species:S:1:pos:R:3 -97082.28295664383=T pbc="F F F"
C       -0.01056685      -0.50219062      -0.02469970
C       -1.30272918       0.22228138       0.01242837
O        1.18052522       0.29636087      -0.01458189
H       -0.00842745      -1.22217455       0.71265183
H        0.03717028      -1.18293530      -0.88807733
H       -2.01362471      -0.47880871       0.61176417
H       -1.14204377       1.27008735       0.48293193
H       -1.84769163       0.56504813      -0.88663914
H        1.87601619      -0.32184759       0.34490623
