9
Properties=species:S:1:pos:R:3 -97083.6015917866=T pbc="F F F"
C       -0.05128809      -0.53161870      -0.02437983
C       -1.26290565       0.24395865       0.00056829
O        1.22096320       0.20302262       0.04999215
H       -0.11141578      -1.29067710       0.77071453
H        0.03475405      -1.15544835      -0.97275206
H       -1.29421502       1.25067702       0.50092732
H       -1.52149148       0.51842087      -1.00277773
H       -2.05987584      -0.19425011       0.60015727
H        1.22255180       1.07428025      -0.40616118
