9
Properties=species:S:1:pos:R:3 -97088.33338105382=T pbc="F F F"
C       -0.03369561      -0.52299041      -0.01086057
C       -1.24841509       0.26391802       0.02336626
O        1.18687400       0.21753494       0.05143347
H        0.17267855      -1.28293700       0.74724788
H       -0.21007635      -1.18913455      -0.95050146
H       -2.14624752      -0.40789897       0.17998405
H       -1.24325512       1.04697472       0.83432154
H       -1.42842549       0.68882447      -1.01392116
H        1.28464667       0.77646452      -0.76232051
