9
Properties=species:S:1:pos:R:3 -97085.10042907366=T pbc="F F F"
C        0.02008420      -0.60484048       0.00461019
C       -1.26654335       0.26660263      -0.01603802
O        1.12989657       0.32801330       0.01156547
H       -0.03342527      -1.23519767       0.93367058
H       -0.08409450      -1.31287174      -0.87453190
H       -2.13102523      -0.31059626       0.45947335
H       -1.18816956       1.12825737       0.73860173
H       -1.66772777       0.62512466      -1.08416410
H        2.01353933      -0.07318542      -0.22053281
