9
Properties=species:S:1:pos:R:3 -97083.53620034429=T pbc="F F F"
C       -0.03474277      -0.60609748      -0.04373322
C       -1.29584592       0.27913349       0.00901895
O        1.22195843       0.26128075       0.04472890
H        0.22841837      -1.26456124       0.91465808
H        0.03945263      -1.27226195      -0.92343517
H       -1.75841051       0.76294369      -0.88025841
H       -2.09031360      -0.32795300       0.36281149
H       -1.12520813       0.94346446       0.86532399
H        1.15578570       0.90475727      -0.63564319
