9
Properties=species:S:1:pos:R:3 -97085.61027052905=T pbc="F F F"
C        0.00527245      -0.54916906       0.00382759
C       -1.28946214       0.24398834       0.00678183
O        1.13539340       0.30821003       0.02134841
H        0.11897273      -1.38981347       0.81704746
H       -0.17497030      -1.12015703      -0.86061996
H       -2.04292390      -0.50135540       0.02332735
H       -1.31247988       1.07389769       0.71737940
H       -1.21713563       0.86941002      -0.85617707
H        1.89964635      -0.18976401      -0.30609652
