9
Properties=species:S:1:pos:R:3 -97082.98025602195=T pbc="F F F"
C        0.01511752       0.59691205      -0.02945802
C       -1.24850302      -0.26338841      -0.02427695
O        1.11384875      -0.27360839       0.05564843
H        0.00700642       1.45331848      -0.63634607
H       -0.04366909       0.91273983       1.02804374
H       -2.18801300       0.32657344      -0.02864461
H       -1.29040366      -1.02216084      -0.82555709
H       -1.21020975      -0.84634081       0.95046190
H        1.73341090      -0.45297513      -0.73132566
