9
Properties=species:S:1:pos:R:3 -97089.09930283854=T pbc="F F F"
C       -0.00868224       0.58341326       0.01985147
C       -1.33691787      -0.25470031      -0.00557912
O        1.22738149      -0.28641916       0.04623070
H       -0.07925315       1.26129365      -0.86115326
H        0.13103212       1.06965003       0.93285326
H       -2.31298538       0.28742807       0.15854067
H       -1.45613315      -0.69265809      -1.00902104
H       -1.37816331      -1.10095801       0.68825771
H        1.63789784      -0.19300452      -0.81313049
