9
Properties=species:S:1:pos:R:3 -97078.87521239814=T pbc="F F F"
C        0.04553745      -0.65290920      -0.00674054
C       -1.27530142       0.25924351       0.02103334
O        1.11300784       0.32277024       0.05341195
H        0.33174408      -1.33734069       0.79539379
H        0.23228771      -1.29829666      -0.90193049
H       -1.08509826       1.06966398       0.67626127
H       -1.08332568       0.55906586      -1.02989610
H       -2.20773745      -0.21639623       0.20540775
H        0.79047646       0.78801583      -0.76310455
