9
Properties=species:S:1:pos:R:3 -97081.35424656192=T pbc="F F F"
C        0.07353864       0.60069541      -0.01122241
C       -1.36774874      -0.26159747       0.00487850
O        1.17586779      -0.29467993       0.05235611
H       -0.13699065       1.20664684      -0.92291167
H        0.28653440       1.25149847       0.91517177
H       -2.21023977       0.48950533      -0.03828313
H       -1.43259133      -0.86205341      -0.86452596
H       -1.40175995      -0.90095326       0.93748194
H        1.64311022      -0.54544059      -0.78232664
