9
Properties=species:S:1:pos:R:3 -97087.61945128135=T pbc="F F F"
C       -0.00105881      -0.59211042       0.01790941
C       -1.22810426       0.24462453      -0.01608913
O        1.09540654       0.33882388       0.03138600
H        0.18646905      -1.36936620       0.79187029
H        0.06860567      -1.13408760      -0.91064914
H       -2.12727211      -0.34174542      -0.33645171
H       -1.63087221       0.63049315       0.95788005
H       -1.13376805       1.16715397      -0.63231632
H        1.88737500      -0.19237373      -0.39012547
