9
Properties=species:S:1:pos:R:3 -97071.52172209648=T pbc="F F F"
C       -0.02300363       0.58863167      -0.00281436
C       -1.21675351      -0.28701209       0.01524286
O        1.17567973      -0.26357765       0.05888056
H       -0.22656496       1.33730601      -0.79978644
H        0.02769217       1.45245230       0.73978274
H       -1.21308451      -1.37962654       0.41215993
H       -2.21201330       0.07977358       0.51077262
H       -1.51636665      -0.29104172      -1.07549585
H        1.24302267      -0.60702777      -0.86989423
