9
Properties=species:S:1:pos:R:3 -97088.23610135815=T pbc="F F F"
C        0.00874322      -0.62377486       0.01978546
C       -1.23358363       0.26729833      -0.02437406
O        1.09137524       0.33192783       0.03702872
H       -0.00317849      -1.16022959       1.04653860
H        0.09441759      -1.26245238      -0.87116950
H       -1.25475973       0.94503326       0.94876807
H       -1.16250841       0.81084639      -1.00441814
H       -2.17298701      -0.28311104      -0.06535374
H        1.76206393      -0.07351716      -0.58740221
