9
Properties=species:S:1:pos:R:3 -97081.14645335183=T pbc="F F F"
C       -0.01853158       0.49212850      -0.02610560
C       -1.29219379      -0.26840023       0.01298885
O        1.22177951      -0.19261032       0.03775962
H       -0.16858262       1.18902798      -0.92349732
H        0.04667600       1.10078829       0.94233026
H       -2.12822756       0.51187219       0.17819725
H       -1.60999983      -0.62353191      -1.05012070
H       -1.30538894      -0.89869133       0.97346043
H        1.38157797      -0.88649400      -0.56346351
