9
Properties=species:S:1:pos:R:3 -97084.25235483889=T pbc="F F F"
C        0.04009670       0.64766961       0.00718155
C       -1.24554487      -0.27727750      -0.00875211
O        1.07490026      -0.35821063       0.00990420
H        0.01321487       1.47171582      -0.78807998
H        0.11220611       1.23312525       0.91879820
H       -1.12214763      -1.12348334       0.74113001
H       -2.25500408       0.32777089       0.29218797
H       -1.35817811      -0.67983842      -1.09607150
H        1.90352646       0.04557699      -0.20645111
