9
Properties=species:S:1:pos:R:3 -97084.7660839169=T pbc="F F F"
C        0.03746876      -0.49951175      -0.00558137
C       -1.34765010       0.22197531      -0.01611114
O        1.17497560       0.24111944       0.05291533
H        0.08914106      -0.99912396       0.91591733
H        0.16215403      -1.12498951      -0.84389679
H       -1.26997830       1.01035373       0.81081101
H       -1.53226470       0.65611388      -0.97472093
H       -2.20831319      -0.49969132       0.20748587
H        1.71165031       0.43517554      -0.69711203
