9
Properties=species:S:1:pos:R:3 -97085.68997229893=T pbc="F F F"
C        0.07446315      -0.61962272      -0.02726253
C       -1.31618375       0.25043811       0.02790752
O        1.10878985       0.34528455      -0.03637924
H        0.23455948      -1.28973407       0.87769649
H       -0.02489203      -1.24262082      -0.87432803
H       -2.24757333      -0.47385767       0.17744645
H       -1.17447780       1.02920796       0.80302792
H       -1.42130151       0.86746932      -0.91602824
H        1.82134010       0.02543686       0.50187049
