9
Properties=species:S:1:pos:R:3 -97088.9690314234=T pbc="F F F"
C        0.01237489       0.58222220      -0.01115262
C       -1.33202424      -0.26459759       0.00445472
O        1.22695217      -0.26454783       0.06780348
H       -0.12226044       1.05752152      -1.00101586
H        0.02133660       1.17755697       0.88969920
H       -1.39078229      -0.93960532      -0.85390584
H       -1.51438328      -0.90645549       0.90161304
H       -2.16439910       0.48816900      -0.02915031
H        1.41070586      -0.46052251      -0.90358004
