9
Properties=species:S:1:pos:R:3 -97076.64310283915=T pbc="F F F"
C        0.06065440       0.51963158      -0.03357032
C       -1.33326461      -0.20243202       0.02234184
O        1.15557907      -0.29826551      -0.04893999
H        0.26165993       1.19883973      -0.80668363
H        0.23228167       1.05809844       0.87550583
H       -2.22364422       0.40934233      -0.16443192
H       -1.65926102      -1.02827754      -0.79699519
H       -1.50473698      -0.52573554       1.08393452
H        1.70657391      -0.15541818       0.71907917
