9
Properties=species:S:1:pos:R:3 -97077.98697023185=T pbc="F F F"
C       -0.02593139       0.63671645      -0.04092254
C       -1.20729470      -0.29150765       0.01930815
O        1.13255033      -0.27577606       0.04486928
H        0.10086417       1.21888918      -0.98566305
H        0.23165385       1.26053513       0.86405420
H       -1.33127463      -1.31482325      -0.49995142
H       -1.26931847      -0.35415314       1.11311829
H       -1.99808386       0.37700165      -0.34576976
H        0.97557499      -0.92102545      -0.60053746
