9
Properties=species:S:1:pos:R:3 -97084.78363276579=T pbc="F F F"
C        0.02788213       0.54705202       0.00031056
C       -1.37422533      -0.25245046       0.02058553
O        1.26716508      -0.22091440       0.00465510
H        0.02263135       1.14869127      -0.95025903
H        0.04649595       1.21579664       0.88554198
H       -2.10440530       0.43952109       0.44708629
H       -1.82351073      -0.32496083      -1.04570475
H       -1.39164415      -1.28161458       0.44545176
H        1.17028133      -1.19913209      -0.10480227
