9
Properties=species:S:1:pos:R:3 -97082.69557905002=T pbc="F F F"
C        0.09827056       0.60991395       0.00600140
C       -1.29668713      -0.23136305       0.00711305
O        1.11211938      -0.29075717       0.01867912
H        0.27317670       1.21611514      -0.94066561
H        0.24757699       1.37131566       0.75303863
H       -1.35854197      -0.80828905       0.98562039
H       -2.25200771       0.33839031      -0.09099563
H       -1.20182565      -0.79021437      -0.96273330
H        0.91082077      -1.22013113      -0.19686727
