9
Properties=species:S:1:pos:R:3 -97084.46211416935=T pbc="F F F"
C       -0.01829312       0.52413052      -0.03442576
C       -1.29725245      -0.23736405      -0.00664598
O        1.20724383      -0.23011573       0.05522052
H        0.18933736       1.10665283      -0.90743170
H        0.09586311       1.23783225       0.79626752
H       -1.95136865       0.63020347      -0.10626137
H       -1.48731898      -1.13917775      -0.62310639
H       -1.45422121      -0.71729596       1.05635006
H        1.11184844      -0.88059053      -0.60317369
