9
Properties=species:S:1:pos:R:3 -97090.18616664135=T pbc="F F F"
C        0.00785116       0.62395142      -0.00356600
C       -1.27260090      -0.27019115      -0.00706959
O        1.12015674      -0.35170254      -0.00057774
H        0.07300440       1.34077835      -0.86789788
H        0.16300697       1.17676222       0.95810287
H       -2.02767080       0.41238144       0.48687329
H       -1.57423088      -0.53482170      -1.03280535
H       -1.29994151      -1.17068536       0.60971197
H        1.94728985       0.14519654      -0.01817974
