9
Properties=species:S:1:pos:R:3 -97084.22380029848=T pbc="F F F"
C       -0.01269076      -0.55684784      -0.00744953
C       -1.30274498       0.26804637       0.02418067
O        1.22443360       0.21545633      -0.00459779
H        0.06689520      -1.26862743       0.93117772
H       -0.06462311      -1.24814467      -0.87255932
H       -1.45648303       0.94797136      -0.84245635
H       -2.16394041      -0.48428055      -0.18598122
H       -1.19984007       0.86664694       0.96488977
H        1.04800963       1.20569567      -0.12131525
