9
Properties=species:S:1:pos:R:3 -97079.93107639904=T pbc="F F F"
C       -0.05394193       0.56238544      -0.02212158
C       -1.20010285      -0.28758933       0.02025250
O        1.16601162      -0.24679707       0.05887901
H       -0.09016125       1.31270639      -0.85727415
H       -0.00504230       1.26009312       0.84303561
H       -1.94765346       0.48356618      -0.27481046
H       -1.49440740      -1.14132801      -0.70128503
H       -1.36394473      -0.69323992       0.95652826
H        1.32745489      -0.57689922      -0.87839207
