9
Properties=species:S:1:pos:R:3 -97090.44583456592=T pbc="F F F"
C        0.00140188      -0.56600926      -0.01993407
C       -1.30295683       0.25082343       0.02161731
O        1.17626620       0.23643951       0.04534209
H        0.25925162      -1.31914696       0.73274498
H        0.07665986      -1.08206421      -1.03956428
H       -1.17035181       1.10364809       0.70429705
H       -1.40794384       0.67455769      -0.99810520
H       -2.08613471      -0.44128487       0.32093679
H        1.15771261       1.06468731      -0.45996338
