9
Properties=species:S:1:pos:R:3 -97078.85162064151=T pbc="F F F"
C        0.07141686       0.58717801      -0.03247034
C       -1.33422315      -0.23187022       0.01658950
O        1.21874138      -0.25936028       0.03778951
H       -0.19589407       1.28254920      -0.90507138
H        0.06683454       1.25571191       0.80362014
H       -2.01093418      -0.16730489      -0.84757490
H       -1.28645473      -1.34291861       0.05327904
H       -1.88295271      -0.02874654       0.96784523
H        1.00310923      -1.11364426      -0.48275457
