9
Properties=species:S:1:pos:R:3 -97090.04094724676=T pbc="F F F"
C       -0.02162624       0.51599313       0.00591948
C       -1.32496166      -0.25367118      -0.01422280
O        1.20143574      -0.26069778       0.05272295
H        0.15430435       1.23188946      -0.88040122
H        0.10965683       1.15882560       0.90323588
H       -1.41764905      -0.90070274      -0.87050066
H       -1.46661266      -0.80908138       0.93375176
H       -2.06696819       0.59930624      -0.08231445
H        1.65320305      -0.26619675      -0.74165660
