9
Properties=species:S:1:pos:R:3 -97078.45373765597=T pbc="F F F"
C       -0.05520917       0.56873558      -0.01423553
C       -1.38806981      -0.29164274      -0.01404793
O        1.31348085      -0.25057230       0.06571037
H        0.07173854       1.23593262      -0.84529710
H       -0.10411670       1.12988720       0.90347535
H       -1.77660970      -0.05238295      -0.92091017
H       -1.32223518      -1.36505531       0.19897449
H       -1.99769905       0.20030954       0.79855212
H        1.46790325      -0.47122381      -0.84089975
