9
Properties=species:S:1:pos:R:3 -97085.68430208134=T pbc="F F F"
C       -0.06080909       0.56351831      -0.02516436
C       -1.30641177      -0.27437399      -0.01459653
O        1.25546031      -0.24487387       0.07634246
H        0.01137419       1.24174959      -0.88669200
H       -0.21331582       1.18071881       0.84281602
H       -1.50924970      -0.74128688       0.93068481
H       -2.16951169       0.29707109      -0.02340364
H       -1.29290793      -1.10872624      -0.78854233
H        1.52780923      -0.42599227      -0.81304704
