9
Properties=species:S:1:pos:R:3 -97086.35650500773=T pbc="F F F"
C        0.02983591      -0.57987040      -0.04015004
C       -1.33617659       0.24139380       0.01533173
O        1.20039355       0.27139082       0.08113062
H        0.05884901      -1.36941580       0.68247851
H        0.20484625      -0.98062174      -0.95814851
H       -1.46456415       1.05829678      -0.80898578
H       -2.25761080      -0.40913259       0.00277876
H       -1.38007617       0.78131668       0.89288817
H        1.34181370       0.64257039      -0.80310554
