9
Properties=species:S:1:pos:R:3 -97070.39509374647=T pbc="F F F"
C       -0.00198499       0.48787581      -0.04098861
C       -1.40127388      -0.20806622       0.04438673
O        1.31697522      -0.19325943       0.02970369
H       -0.16387246       1.08712437      -1.02493065
H        0.07423121       1.31524047       0.80581397
H       -2.26411288       0.43568965       0.10478759
H       -1.55868646      -0.99484540      -0.97144892
H       -1.37028220      -0.97256244       0.81761242
H        1.08973325      -1.13512418      -0.24371432
