9
Properties=species:S:1:pos:R:3 -97083.6154021944=T pbc="F F F"
C        0.00611993      -0.51073834       0.00400994
C       -1.34733431       0.23373185       0.03132374
O        1.21257949       0.30396608      -0.00386043
H       -0.04416528      -1.16790638       0.84154852
H       -0.01909943      -1.14669815      -0.96647500
H       -1.98166390       0.10951573       0.84759299
H       -1.15622071       1.25197347      -0.28871017
H       -1.95416858      -0.15786146      -0.89526615
H        1.88041131      -0.41491668       0.10186564
