9
Properties=species:S:1:pos:R:3 -97091.6157472305=T pbc="F F F"
C        0.02525269      -0.55078944      -0.02124261
C       -1.28683803       0.24320176       0.01406257
O        1.14939415       0.24643901       0.06276840
H        0.05584738      -1.35698460       0.75408728
H        0.18810573      -1.08247446      -0.99021165
H       -1.33406556       0.93037440      -0.81868738
H       -2.22121234      -0.41039407      -0.09683829
H       -1.21548810       0.86333083       0.95204300
H        1.30657409       0.80737576      -0.71108157
