9
Properties=species:S:1:pos:R:3 -97084.4907516662=T pbc="F F F"
C       -0.03121006      -0.67081507      -0.03985029
C       -1.26976580       0.28894647       0.00909703
O        1.18828637       0.27831887       0.04246793
H        0.12714647      -1.27412039       0.91133771
H        0.11532265      -1.19029997      -0.97229314
H       -2.16769147      -0.14953255       0.39414001
H       -0.97020668       0.96001567       0.78542957
H       -1.40207024       0.80651689      -0.96936470
H        0.92902904       0.97714193      -0.45707253
