9
Properties=species:S:1:pos:R:3 -97089.13516911451=T pbc="F F F"
C       -0.02079751      -0.58678001      -0.01941311
C       -1.20487841       0.25059858       0.02168285
O        1.13079436       0.26095849       0.05028923
H        0.18631801      -1.27808872       0.89532459
H        0.01539978      -1.29207881      -0.89352229
H       -1.30170617       0.73913727      -0.94787765
H       -2.21785423      -0.19991938       0.10924550
H       -1.14011624       1.13482624       0.78103629
H        1.10534495       0.75737740      -0.76935851
