9
Properties=species:S:1:pos:R:3 -97083.23628862598=T pbc="F F F"
C       -0.02290323      -0.51433333      -0.02440324
C       -1.27222221       0.21973415       0.02018320
O        1.19964416       0.21466927       0.05783694
H        0.08368726      -1.31868342       0.69732935
H        0.03266750      -1.12915000      -1.06622711
H       -1.25752513       0.89827875       0.80899051
H       -1.32013282       1.06889981      -0.74100430
H       -2.19447975      -0.36694551       0.06143878
H        1.03739628       0.94838523      -0.62819415
