9
Properties=species:S:1:pos:R:3 -97092.92181146432=T pbc="F F F"
C       -0.00134698      -0.58585757       0.01248827
C       -1.24399680       0.25130545      -0.00668323
O        1.12175452       0.29851940       0.04501002
H       -0.00157662      -1.22453909       0.89397428
H        0.03449014      -1.15178068      -0.94192430
H       -1.13961400       1.12340970       0.56625650
H       -1.48461057       0.59289336      -1.02384761
H       -2.12758545      -0.19656941       0.32448209
H        1.74393333       0.10232132      -0.60240223
