9
Properties=species:S:1:pos:R:3 -97078.1410983873=T pbc="F F F"
C        0.09378783       0.56945228      -0.02538717
C       -1.31627702      -0.22569941       0.00893272
O        1.10172024      -0.34810622      -0.02460400
H        0.36268720       1.25957827      -0.89867032
H       -0.10727935       1.21614088       0.82596299
H       -1.28292197      -0.90712635       0.90072304
H       -2.06115584       0.55551066       0.15965389
H       -1.54580284      -0.84557730      -0.97873912
H        1.70534236       0.15316562       0.57747315
