9
Properties=species:S:1:pos:R:3 -97085.21967166831=T pbc="F F F"
C       -0.06296112       0.58572973      -0.01383825
C       -1.30444146      -0.27958278       0.00515378
O        1.20903672      -0.31143737      -0.00156626
H        0.09789786       1.32975181      -0.84232821
H       -0.11244932       1.08536755       1.00891240
H       -1.33909795      -1.02118509      -0.85823946
H       -1.34308605      -0.85018081       0.84950300
H       -2.18006101       0.46497654      -0.08327988
H        1.96993468       0.28876772       0.05369435
