9
Properties=species:S:1:pos:R:3 -97088.82005410468=T pbc="F F F"
C        0.00120622      -0.54798400      -0.00395126
C       -1.24375714       0.26966742      -0.01543773
O        1.11153247       0.30374669       0.00708854
H       -0.21782448      -1.12774244       0.89949293
H       -0.04794235      -1.26624562      -0.82614451
H       -1.99633504      -0.54818734      -0.01615474
H       -1.19944821       0.75305189       0.97974678
H       -1.32536714       0.97318327      -0.83535457
H        1.94093129      -0.29087238      -0.08322476
