9
Properties=species:S:1:pos:R:3 -97082.4547947513=T pbc="F F F"
C        0.03899051      -0.57131403      -0.02030324
C       -1.33204535       0.24576778      -0.02307986
O        1.18729958       0.27002354       0.06399596
H        0.03296431      -1.23234815       0.82825565
H        0.12884019      -1.35314384      -0.88260329
H       -1.58973868       0.75165225      -0.93956146
H       -2.14359692      -0.45187670       0.46329594
H       -1.20893965       1.17439618       0.79403312
H        1.33334724       0.70207405      -0.76252729
