9
Properties=species:S:1:pos:R:3 -97087.0972571336=T pbc="F F F"
C       -0.05520837      -0.57923003      -0.01475270
C       -1.25686927       0.26719959      -0.01121792
O        1.15391047       0.30036206       0.01376602
H        0.00448983      -1.22809453       0.97253092
H       -0.08389746      -1.25601543      -0.89388445
H       -1.32193869       0.93179148      -0.85434444
H       -2.20153387      -0.35713173       0.25694239
H       -1.06027370       1.06469922       0.75014661
H        1.97244102      -0.20691998      -0.14064001
