9
Properties=species:S:1:pos:R:3 -97072.56086261282=T pbc="F F F"
C       -0.01168247       0.57734795      -0.03678914
C       -1.23202071      -0.29168025      -0.00681264
O        1.14928888      -0.24639933       0.06134871
H       -0.21837744       1.28114914      -0.77265197
H       -0.04833851       1.38611989       0.80540929
H       -1.98183649       0.47480837      -0.11599926
H       -1.13215847      -1.17095387      -0.68503946
H       -1.24313303      -0.82165156       1.12235043
H        1.19235614      -0.64033220      -0.80855872
