9
Properties=species:S:1:pos:R:3 -97083.8613269603=T pbc="F F F"
C        0.02313000       0.58653821      -0.01864168
C       -1.27660515      -0.24989621       0.05278669
O        1.14768976      -0.30647024      -0.03881256
H       -0.12443536       0.91869666      -1.08347459
H        0.03215892       1.42990605       0.69680590
H       -1.86778875      -0.32337256       0.97744260
H       -1.95738354       0.11431993      -0.75373642
H       -1.04423571      -1.27277130      -0.39943652
H        1.67192887      -0.01121238       0.77182381
