9
Properties=species:S:1:pos:R:3 -97080.52438890567=T pbc="F F F"
C        0.04119421      -0.62731845      -0.02576845
C       -1.24448487       0.23934466       0.01694152
O        1.12997653       0.29644816       0.07088058
H        0.10334063      -1.50586297       0.73750506
H        0.12535061      -1.19912872      -1.03210744
H       -2.23196055      -0.24481323       0.33487414
H       -1.21211626       1.20175410       0.68613413
H       -1.38620336       0.79821061      -0.99219249
H        0.99541709       0.86453019      -0.75403895
