9
Properties=species:S:1:pos:R:3 -97079.95638962256=T pbc="F F F"
C        0.05722146       0.59142447       0.00987254
C       -1.30712554      -0.20555874      -0.01359544
O        1.13139477      -0.35437779       0.02409528
H        0.00517641       1.16619893      -0.84169921
H        0.25991764       1.28264964       0.84554891
H       -1.62411575      -0.93688239       0.83030722
H       -2.26786928       0.38850935      -0.07040518
H       -1.29924321      -1.07687050      -0.74993018
H        1.85247197       0.20619056      -0.35190318
