9
Properties=species:S:1:pos:R:3 -97087.70067315333=T pbc="F F F"
C        0.02308233       0.60947063       0.00208972
C       -1.24672218      -0.23401643      -0.02298658
O        1.08624189      -0.34069212       0.02776667
H        0.07570152       1.27724921      -0.96396902
H       -0.02021030       1.26455298       0.92222357
H       -2.15222230       0.28946807       0.13985440
H       -1.24412023      -1.08535614      -0.84084539
H       -1.20717290      -0.95730756       0.81306980
H        1.87824718       0.14795584      -0.26219537
