9
Properties=species:S:1:pos:R:3 -97088.34743677288=T pbc="F F F"
C       -0.04475799      -0.55730737      -0.02393595
C       -1.24033482       0.27916690       0.03218365
O        1.18748740       0.21352220       0.03638420
H        0.04075549      -1.13406946       0.89514206
H       -0.07339024      -1.25967732      -0.84378684
H       -1.17781772       1.11801291      -0.71531486
H       -1.99883211      -0.44027788      -0.50440165
H       -1.53042667       0.64802426       1.01312111
H        1.19480438       0.99100619      -0.52040757
