9
Properties=species:S:1:pos:R:3 -97082.5193354121=T pbc="F F F"
C       -0.05041359      -0.65160834      -0.03781121
C       -1.26932606       0.29843915       0.00580647
O        1.21222726       0.26391355       0.05161455
H       -0.04978568      -1.20772204       0.96792677
H        0.07808822      -1.40694124      -0.81848538
H       -2.24017097      -0.14567129       0.24733224
H       -0.97560789       1.09677700       0.82620066
H       -1.28684283       0.78689839      -0.94856096
H        0.94930680       0.89328459      -0.71249873
