9
Properties=species:S:1:pos:R:3 -97090.08396123543=T pbc="F F F"
C        0.00335556      -0.58243367      -0.00023904
C       -1.29987505       0.23581044      -0.00795687
O        1.16022098       0.32559498       0.00294602
H        0.04304396      -0.99298354       1.07352770
H        0.04506495      -1.32125332      -0.81300690
H       -1.47303624       0.72055218      -1.02011100
H       -2.19402883      -0.32590249       0.25090568
H       -1.26760191       1.12123083       0.69650660
H        1.87044465      -0.24188898      -0.13699019
