9
Properties=species:S:1:pos:R:3 -97091.77618569483=T pbc="F F F"
C        0.01051127       0.59294907      -0.01365376
C       -1.24068047      -0.26110815       0.02906927
O        1.15988733      -0.25932658       0.05528164
H       -0.07391671       1.11884280      -0.98508082
H        0.04019356       1.43555000       0.72529270
H       -2.16904337       0.28517313      -0.26760881
H       -1.21906994      -0.97750215      -0.80177389
H       -1.43114228      -0.85133433       1.00635627
H        1.09213906      -0.84620148      -0.73809502
