9
Properties=species:S:1:pos:R:3 -97087.1022044916=T pbc="F F F"
C        0.04197014       0.62884733      -0.00924377
C       -1.30573123      -0.26877501       0.00769480
O        1.15716438      -0.29477719       0.05881925
H        0.08344537       1.16950755      -0.95963877
H       -0.01492335       1.33597430       0.82578667
H       -2.19252049       0.40060309       0.00554954
H       -1.47248576      -0.90140703      -0.85860105
H       -1.27230004      -1.02607261       0.78879634
H        1.55113262      -0.58759683      -0.71695369
