9
Properties=species:S:1:pos:R:3 -97084.85680994393=T pbc="F F F"
C        0.01498511       0.65578382       0.01668882
C       -1.25055946      -0.29082353      -0.01583167
O        1.08930058      -0.36269955       0.02536326
H        0.03315326       1.54578747      -0.75601836
H        0.14386724       1.18256218       0.92811444
H       -2.11307120       0.32382761      -0.14685467
H       -1.11348156      -0.93082459      -0.90776910
H       -1.38392578      -0.79263069       0.91919504
H        1.85723948       0.08206335      -0.44940661
