9
Properties=species:S:1:pos:R:3 -97080.9228603385=T pbc="F F F"
C        0.01870942       0.60954711      -0.04460475
C       -1.34239333      -0.25406312       0.02558655
O        1.19193624      -0.29191557       0.08166521
H        0.13095783       1.24317448      -0.92166339
H        0.15998334       1.38558209       0.83015614
H       -1.03118243      -1.32873794       0.22458104
H       -2.05178723       0.12814509       0.74141034
H       -1.67062464      -0.39530170      -1.05969984
H        1.30663747      -0.63263714      -0.88442403
