9
Properties=species:S:1:pos:R:3 -97086.73283712428=T pbc="F F F"
C       -0.01793175       0.51780521       0.01533154
C       -1.32032331      -0.24938146      -0.00191370
O        1.22121432      -0.28264821       0.03814038
H       -0.09415470       1.16602446      -0.93167185
H        0.05401510       1.18257997       0.87839810
H       -1.52289330      -0.87481111      -1.01960838
H       -1.45592225      -0.82894139       0.86261097
H       -2.15187233       0.49969271       0.06238346
H        1.72364367       0.14521199      -0.61719174
