9
Properties=species:S:1:pos:R:3 -97089.8167838827=T pbc="F F F"
C        0.02860849       0.59208589      -0.02139548
C       -1.28260272      -0.23753253       0.00482772
O        1.15582399      -0.26414598       0.05592929
H        0.13690487       1.12757342      -0.94649710
H        0.01118327       1.21739103       0.90602589
H       -1.95363028       0.12806590      -0.71466645
H       -1.03694320      -1.23428532      -0.24419944
H       -1.64728247      -0.43476771       1.03058118
H        1.07709681      -0.83339506      -0.72161292
