9
Properties=species:S:1:pos:R:3 -97089.58270695609=T pbc="F F F"
C        0.00820659       0.56173504       0.00563815
C       -1.29975985      -0.24854594      -0.00403553
O        1.15517271      -0.32012438       0.02751912
H        0.05787485       1.23178763      -0.83886039
H        0.04751869       1.31670031       0.86673253
H       -1.38671700      -0.81108653      -0.94469897
H       -1.46306072      -1.11620621       0.70428431
H       -2.11279683       0.57616290       0.09390979
H        1.90205519       0.15415929      -0.33719785
