9
Properties=species:S:1:pos:R:3 -97082.43490203949=T pbc="F F F"
C       -0.03941687      -0.51461397      -0.05836547
C       -1.27865772       0.26038853       0.01111203
O        1.20629432       0.21166738       0.04827096
H       -0.05300846      -1.18843733       0.85846023
H        0.17476709      -1.41474282      -0.77805587
H       -1.50873144       0.99202869      -0.86351443
H       -2.12054473      -0.45929840       0.07219830
H       -1.21931090       0.73759679       0.96101168
H        1.27615057       1.00055699      -0.45355649
