9
Properties=species:S:1:pos:R:3 -97088.44253616317=T pbc="F F F"
C       -0.05749312      -0.49043924      -0.03366313
C       -1.33141406       0.23756314       0.02192927
O        1.26541869       0.20628892       0.07027361
H       -0.04083709      -1.20544573       0.87186470
H       -0.00965249      -1.06673913      -0.96441399
H       -2.25469366      -0.31096028       0.09516036
H       -1.30841107       0.97474346       0.77817645
H       -1.39194343       0.75811302      -0.95953305
H        1.45990470       0.58728626      -0.79683465
