9
Properties=species:S:1:pos:R:3 -97084.23500916586=T pbc="F F F"
C       -0.00418978       0.63164281      -0.03187061
C       -1.28304752      -0.30550851       0.00386798
O        1.18061454      -0.28373583       0.07188141
H       -0.06218190       1.23520325      -0.93878456
H       -0.01977285       1.39340762       0.79250149
H       -1.11657436      -1.16314780      -0.71082221
H       -1.43219079      -0.51978864       1.04804410
H       -2.32187362       0.19555597      -0.23678271
H        1.54229795      -0.52136207      -0.76154376
