9
Properties=species:S:1:pos:R:3 -97089.88670668732=T pbc="F F F"
C       -0.04031044      -0.63751481      -0.00580795
C       -1.21419671       0.29332015       0.00140310
O        1.16277041       0.24250089       0.01005818
H        0.01423548      -1.35751269       0.81880514
H       -0.04635706      -1.26121090      -0.92692672
H       -2.20046141      -0.27185223       0.09442038
H       -1.06447819       0.99587614       0.82293469
H       -1.12524964       1.01412046      -0.83261730
H        0.90550226       1.13018109      -0.08379889
