9
Properties=species:S:1:pos:R:3 -97081.14779241307=T pbc="F F F"
C        0.01058959       0.57427042      -0.03410930
C       -1.31531939      -0.24374884       0.01567767
O        1.20616873      -0.25635408       0.06169577
H        0.07653994       1.20214711      -0.85843293
H        0.18940498       1.23198117       0.81868141
H       -0.91787574      -1.33921242      -0.07598295
H       -1.91062123      -0.19524003       0.95716469
H       -2.14255560       0.02121400      -0.77027738
H        1.09752882      -0.78782838      -0.83084720
