9
Properties=species:S:1:pos:R:3 -97090.88265023081=T pbc="F F F"
C        0.00517189       0.62155647      -0.01281566
C       -1.21668324      -0.25125309      -0.00531120
O        1.12922335      -0.25271383       0.01648187
H        0.11063566       1.23754501      -0.89907537
H        0.00606175       1.17523314       0.94110035
H       -1.46790131      -0.62262855      -0.96936864
H       -0.99481242      -1.21354506       0.59971622
H       -2.07536257       0.17079117       0.45489003
H        0.92504293      -1.14578278      -0.17300845
