9
Properties=species:S:1:pos:R:3 -97084.35944324771=T pbc="F F F"
C       -0.03506968      -0.55828995      -0.03756963
C       -1.27495518       0.24967895       0.03067243
O        1.21590206       0.21520816       0.05527162
H        0.05372335      -1.25610662       0.80642502
H        0.00724568      -0.99396520      -1.03744025
H       -1.31045387       1.01990402      -0.85711912
H       -2.20577425      -0.28471061      -0.25509114
H       -1.52588538       0.74322243       1.08302072
H        1.28213788       1.03072467      -0.53487217
