9
Properties=species:S:1:pos:R:3 -97087.85791631098=T pbc="F F F"
C       -0.00682233       0.53389701      -0.01500306
C       -1.34165287      -0.23285316       0.00781017
O        1.21205756      -0.25124492       0.06844346
H        0.07993977       0.97884334      -1.02644308
H        0.01295331       1.18149431       0.89188002
H       -2.24462208       0.28330142       0.27312672
H       -1.45496059      -0.70776698      -1.01675864
H       -1.10590803      -1.02782729       0.68271913
H        1.53242785      -0.30508320      -0.80512705
