9
Properties=species:S:1:pos:R:3 -97083.45938211522=T pbc="F F F"
C       -0.01514039       0.57707408      -0.05675314
C       -1.24125300      -0.24212113       0.03697208
O        1.15282974      -0.24191787       0.06122970
H        0.06900800       1.24693468      -0.98260163
H        0.12407857       1.28969172       0.83300972
H       -1.99728741      -0.10780488      -0.68025880
H       -1.01438142      -1.28672214      -0.36679915
H       -1.68049675      -0.24125441       1.01499184
H        1.16249535      -1.04966021      -0.55457205
