9
Properties=species:S:1:pos:R:3 -97080.58117832309=T pbc="F F F"
C        0.01975593       0.56325605      -0.00288419
C       -1.32351298      -0.24404764      -0.01677656
O        1.22456956      -0.25811717       0.06527743
H        0.03930026       1.14431245      -0.98208941
H       -0.23318100       1.25539988       0.88747898
H       -1.59227915      -0.75267537      -0.89799613
H       -1.26622389      -1.16298688       0.79269111
H       -2.24795578       0.30894759       0.24104485
H        1.38914379      -0.49725063      -0.84303236
