9
Properties=species:S:1:pos:R:3 -97084.07598938688=T pbc="F F F"
C       -0.01829625       0.54285472      -0.01859687
C       -1.26380389      -0.26080359       0.00469097
O        1.16675136      -0.25640213       0.05680834
H       -0.10493094       1.27327040      -0.81679225
H        0.14464497       1.14688765       0.97669105
H       -2.06555414      -0.06592496       0.80011416
H       -1.86967169      -0.00383205      -0.86097280
H       -0.96945896      -1.32065508      -0.06889397
H        1.61352667      -0.31879257      -0.76616056
