9
Properties=species:S:1:pos:R:3 -97088.68226523654=T pbc="F F F"
C        0.02844584      -0.53869267       0.00193966
C       -1.29711702       0.22365405       0.01097804
O        1.13663702       0.30875321       0.03071169
H        0.00926058      -1.27485525       0.89358456
H        0.02587574      -0.96731117      -0.93936130
H       -1.15721651       0.92165388      -0.83339415
H       -2.10910947      -0.43419624      -0.23238945
H       -1.57030821       0.83667819       0.78590935
H        1.86809388      -0.23099611      -0.31557454
