9
Properties=species:S:1:pos:R:3 -97085.20386543618=T pbc="F F F"
C       -0.00320484      -0.55965386      -0.00173781
C       -1.31545256       0.26456780      -0.00807158
O        1.24265225       0.22791514       0.00560695
H       -0.00864824      -1.34832671       0.76638283
H        0.06350242      -1.28283269      -0.90073699
H       -2.16416577      -0.50839898       0.00536088
H       -1.45085935       0.74609441       0.93099112
H       -1.49029303       1.06276899      -0.78820665
H        1.02969869       1.22705540       0.01402101
