9
Properties=species:S:1:pos:R:3 -97089.60638456885=T pbc="F F F"
C        0.00125037      -0.61699613      -0.03209154
C       -1.25531901       0.26595479      -0.01092480
O        1.16042784       0.27899759       0.06511734
H       -0.08641022      -1.23269777       0.84811129
H        0.22425442      -1.31525473      -0.85082534
H       -1.34513314       0.93015055      -0.88702399
H       -2.10229480      -0.29386267       0.15809730
H       -1.25126784       0.91181615       0.93892836
H        1.07600022       0.75174326      -0.72855891
