9
Properties=species:S:1:pos:R:3 -97086.09829805628=T pbc="F F F"
C        0.00673053      -0.55070824      -0.01552089
C       -1.30700939       0.25838620      -0.00996201
O        1.19031103       0.26032485       0.07438264
H       -0.07690455      -1.17916757       0.82155917
H        0.13683155      -1.00405876      -0.95230613
H       -1.39088344       0.76849760       0.97234804
H       -1.59234254       0.82652752      -0.92866102
H       -2.12829563      -0.44607236       0.05145200
H        1.64269243       0.38335775      -0.84147801
