9
Properties=species:S:1:pos:R:3 -97083.12213449583=T pbc="F F F"
C        0.04133159       0.56122482       0.00277248
C       -1.37417670      -0.22165956      -0.01531065
O        1.16939562      -0.32854255       0.02173319
H        0.31968244       1.41368589      -0.68896272
H        0.05513560       1.07846737       0.95849222
H       -2.25456384       0.43120292       0.17622211
H       -1.61447005      -0.74717204      -0.94179344
H       -1.18857990      -1.08503285       0.69446685
H        1.99359686       0.07991203      -0.39405665
