9
Properties=species:S:1:pos:R:3 -97083.53209205063=T pbc="F F F"
C        0.02581076       0.57855548      -0.01051939
C       -1.34164620      -0.25034245       0.01920153
O        1.24164937      -0.25302226       0.00333604
H       -0.09531871       1.15519225      -0.87672785
H        0.26972029       1.26684751       0.85704413
H       -2.20907087       0.49223360       0.01860531
H       -1.37710773      -0.83076936      -0.90316099
H       -1.32847166      -0.93949937       0.88561338
H        0.70179933      -1.03633403      -0.13769606
