9
Properties=species:S:1:pos:R:3 -97083.22031614608=T pbc="F F F"
C       -0.03865049      -0.57956664      -0.01888445
C       -1.27797712       0.26914676       0.02534728
O        1.20119565       0.23964566       0.06461641
H        0.04857936      -1.30507489       0.86343308
H        0.01153637      -1.09487399      -1.06601916
H       -1.94739233      -0.40933600      -0.46743433
H       -1.60907205       0.72604865       1.03211485
H       -1.06215070       1.16737724      -0.70813707
H        1.17151208       0.80862484      -0.75641843
