9
Properties=species:S:1:pos:R:3 -97083.67590549919=T pbc="F F F"
C        0.02729737      -0.61678662      -0.00272734
C       -1.26783877       0.27173372       0.01564859
O        1.11761343       0.34617034       0.02004745
H        0.04498361      -1.37539212       0.94048335
H        0.07318773      -1.14498652      -1.01384577
H       -2.17601665      -0.44119821      -0.34272909
H       -1.60834063       0.67921127       0.94458200
H       -1.22374409       1.04368034      -0.82971922
H        1.92350773      -0.14680346      -0.17078991
