9
Properties=species:S:1:pos:R:3 -97091.25158463526=T pbc="F F F"
C       -0.03696119       0.54445253      -0.00131017
C       -1.31044539      -0.25789336      -0.00774935
O        1.21630656      -0.26426919       0.05279810
H        0.04109158       1.17564228      -0.89638064
H       -0.03627491       1.15978197       0.98610078
H       -1.13606637      -1.20738925       0.50189676
H       -2.13102563       0.28795604       0.43417241
H       -1.70516432      -0.47909222      -1.00366765
H        1.70711121      -0.15476594      -0.75219584
