9
Properties=species:S:1:pos:R:3 -97079.29057505075=T pbc="F F F"
C        0.09830707      -0.58161902      -0.02934976
C       -1.34508153       0.21173676       0.02251025
O        1.10156202       0.34888524      -0.00481005
H        0.10378724      -1.34704040       0.93179297
H        0.10039556      -1.22695319      -0.89393111
H       -1.98857805      -0.07140687       0.77596574
H       -1.03054571       1.27292741       0.23478525
H       -1.75442857       0.28686399      -1.07913141
H        1.93191076      -0.04732816       0.18829443
