9
Properties=species:S:1:pos:R:3 -97082.61717340582=T pbc="F F F"
C        0.03288576      -0.59685832      -0.03208222
C       -1.26086034       0.27560929       0.01666687
O        1.15589979       0.26451512       0.05134131
H        0.16911733      -1.10416654       0.94204093
H        0.08957522      -1.32144351      -0.88356105
H       -1.46946664       0.64087198      -0.97623351
H       -2.07488298      -0.61044197       0.19981489
H       -1.43785164       1.03488713       0.76541919
H        0.99982311       0.98730319      -0.67875650
