9
Properties=species:S:1:pos:R:3 -97088.01271184551=T pbc="F F F"
C        0.00371505       0.56055673      -0.00499454
C       -1.28120319      -0.25976772      -0.00987499
O        1.16437161      -0.28481490       0.05569823
H        0.10698268       1.29965455      -0.80488980
H        0.14751151       1.10992354       0.99586627
H       -1.84069067      -0.20895127      -0.98212465
H       -1.21793733      -1.26474206       0.32022288
H       -2.03887218       0.26476302       0.63285981
H        1.57441615      -0.26187184      -0.86885694
