9
Properties=species:S:1:pos:R:3 -97088.88534568358=T pbc="F F F"
C       -0.00763352       0.52900807      -0.02917854
C       -1.30598025      -0.26469006       0.00206553
O        1.18737390      -0.24223657       0.07592526
H        0.19097651       1.20137482      -0.82345972
H       -0.12712335       1.22535787       0.81611557
H       -1.38051462      -0.84023409       0.93169370
H       -1.97578114       0.61141588      -0.08072304
H       -1.34895852      -0.94339703      -0.88555894
H        1.43788972      -0.55723645      -0.84022651
