9
Properties=species:S:1:pos:R:3 -97083.26866614734=T pbc="F F F"
C        0.01979305       0.59308699      -0.02895330
C       -1.23108985      -0.25447869      -0.00000980
O        1.12556378      -0.29017056       0.05475980
H        0.25061836       1.39324617      -0.74988139
H        0.12735042       1.20628325       0.86671682
H       -1.88283927      -0.10557195      -0.91801814
H       -1.21266966      -1.34327891       0.22398516
H       -1.81655481       0.13265953       0.82779358
H        1.09328453      -0.70987166      -0.77481519
