9
Properties=species:S:1:pos:R:3 -97088.0362339005=T pbc="F F F"
C       -0.03901386      -0.56182562      -0.04790629
C       -1.19747549       0.26243764       0.01780865
O        1.16120357       0.23361894       0.05544255
H       -0.10953088      -1.29966041       0.82659085
H        0.07472195      -1.25792492      -0.83154268
H       -1.14944836       0.77375680       0.99934987
H       -1.26088267       0.98616440      -0.77760907
H       -2.19847396      -0.20614658      -0.07103113
H        0.93713763       0.86087005      -0.66730398
