9
Properties=species:S:1:pos:R:3 -97081.19654476835=T pbc="F F F"
C        0.01726219       0.59242321      -0.03041294
C       -1.33064513      -0.25363087       0.02890805
O        1.18507070      -0.24128869       0.05734768
H       -0.11990290       1.03878770      -1.02456208
H        0.19021456       1.13374981       0.86633389
H       -1.19311602      -0.77409840       1.00927181
H       -2.26688782       0.23220795      -0.18837190
H       -1.08547044      -0.96419990      -0.79678421
H        1.30545630      -0.87096290      -0.75811847
