9
Properties=species:S:1:pos:R:3 -97082.49551582495=T pbc="F F F"
C        0.00921574      -0.57780905      -0.05184263
C       -1.32353455       0.28156532       0.00767064
O        1.16331809       0.32140847      -0.00479636
H       -0.02641328      -1.31310999       0.82231273
H        0.02633007      -1.13200116      -0.88941000
H       -2.08415664      -0.44745566       0.14061613
H       -1.23605160       0.59627420       1.08616626
H       -1.41082426       0.90720173      -0.89084453
H        1.91778245      -0.18457135       0.33322939
