9
Properties=species:S:1:pos:R:3 -97092.5780175032=T pbc="F F F"
C       -0.02355449       0.54509526      -0.01344495
C       -1.26692409      -0.25437108       0.03579451
O        1.21136314      -0.22360423       0.03970879
H       -0.03038763       1.07887812      -0.94130576
H        0.09977133       1.27539430       0.71366299
H       -2.14598300       0.38474978      -0.16504818
H       -1.25953786      -0.84154213      -0.91989419
H       -1.48907368      -0.82850903       0.91329884
H        0.96550604      -0.98181261      -0.49703337
