9
Properties=species:S:1:pos:R:3 -97081.72888969483=T pbc="F F F"
C       -0.02316629      -0.54517538      -0.02176526
C       -1.27953548       0.23647065       0.01552686
O        1.17444376       0.24638167       0.07639122
H        0.25782662      -1.22039405       0.79430957
H        0.13777771      -1.03007723      -1.00929695
H       -1.60892113       0.96309085       0.80726673
H       -1.24663466       0.87733346      -0.86878920
H       -1.98380777      -0.52401148      -0.02732648
H        1.31553130       0.69949675      -0.83426812
