9
Properties=species:S:1:pos:R:3 -97082.97196550015=T pbc="F F F"
C       -0.00652817       0.57009640      -0.00739720
C       -1.26155280      -0.25615298      -0.01902287
O        1.13273325      -0.31551243       0.00421551
H        0.21791299       1.21184186      -0.91720801
H       -0.23345140       1.31905235       0.74816077
H       -1.46346122      -0.97026649      -0.80815767
H       -1.07298817      -0.75360462       0.94665254
H       -2.28746492       0.28777958       0.16479738
H        1.96097680       0.17453805       0.11343114
