9
Properties=species:S:1:pos:R:3 -97083.67226122378=T pbc="F F F"
C        0.01013571      -0.57068496      -0.04343471
C       -1.26255997       0.24310039       0.01345131
O        1.15562082       0.26779221       0.07385663
H        0.17791213      -1.36353281       0.76657749
H       -0.02291518      -1.10147401      -0.91715701
H       -2.19160219      -0.09568116      -0.51103226
H       -1.63847621       0.35631525       1.09167215
H       -1.25980303       1.22581984      -0.44835694
H        1.50674463       0.62898961      -0.79685451
