9
Properties=species:S:1:pos:R:3 -97089.73458500857=T pbc="F F F"
C        0.02300204      -0.62775576      -0.00072612
C       -1.30213731       0.26056751      -0.00775316
O        1.12746831       0.35116950       0.01714916
H       -0.01817163      -1.42117465       0.78364271
H        0.17871207      -1.14989454      -0.94104897
H       -1.68223579       0.51549971      -0.99511209
H       -2.04350652      -0.27163404       0.57958292
H       -1.09670972       1.23748360       0.49655010
H        1.99861601      -0.11154728      -0.09482302
