9
Properties=species:S:1:pos:R:3 -97089.07088252231=T pbc="F F F"
C        0.00552057       0.59149006      -0.00081382
C       -1.25363934      -0.25535678      -0.02980059
O        1.08783065      -0.30755466       0.04822981
H        0.06282121       1.28375273      -0.84278855
H        0.00605667       1.23031210       0.88534639
H       -2.21822060       0.18980504      -0.05816012
H       -0.91097171      -1.05392634      -0.78159584
H       -1.19200947      -0.74247683       0.92196676
H        1.84879848      -0.02863240      -0.52569023
