9
Properties=species:S:1:pos:R:3 -97087.2381744964=T pbc="F F F"
C        0.05314980       0.58462143      -0.00623309
C       -1.25413066      -0.24051601       0.02419037
O        1.05244160      -0.33769300      -0.00651339
H       -0.02287404       1.18541466      -0.95125757
H        0.14716466       1.35263192       0.83805670
H       -1.25223858      -0.96807829      -0.86394607
H       -1.21622208      -0.74292045       0.96128945
H       -2.06201530       0.36420010      -0.14897846
H        2.00304681       0.07098070       0.05439384
