9
Properties=species:S:1:pos:R:3 -97086.50309999405=T pbc="F F F"
C       -0.01569768      -0.55941242      -0.02999694
C       -1.29325026       0.24284998      -0.00063285
O        1.18901167       0.24966151       0.06571152
H        0.08561293      -1.07713050       0.96662548
H        0.18346055      -1.32769591      -0.87477432
H       -1.31436617       1.09283336      -0.76582898
H       -2.22784108      -0.42870013      -0.07460870
H       -1.31314735       0.86941875       0.93408049
H        1.30122204       0.67821987      -0.86367977
