9
Properties=species:S:1:pos:R:3 -97078.29765306933=T pbc="F F F"
C       -0.04762334      -0.49737972      -0.04580064
C       -1.39034447       0.25820652       0.02657827
O        1.29538565       0.27062389      -0.03702912
H       -0.07156757      -1.17771968       1.00081899
H       -0.04182314      -1.20134461      -0.89664032
H       -2.14253200      -0.51249847       0.32166457
H       -1.23442879       1.04304342       0.73997269
H       -1.82345382       0.61331641      -0.93711659
H        1.87673142      -0.21200031       0.58785709
