9
Properties=species:S:1:pos:R:3 -97083.89931789183=T pbc="F F F"
C        0.06355938      -0.60643533      -0.01019809
C       -1.27761634       0.25370758       0.00407328
O        1.10187821       0.35374609      -0.00665622
H       -0.09350298      -1.22794908       0.88136566
H        0.02250507      -1.19335482      -1.00031459
H       -2.09424455      -0.46361982       0.23400497
H       -1.34386036       0.95509974       0.76304682
H       -1.46561358       0.77591163      -0.92875630
H        1.94267777      -0.26042586       0.22921964
