9
Properties=species:S:1:pos:R:3 -97080.54149473127=T pbc="F F F"
C       -0.03520136      -0.55991115      -0.02536267
C       -1.29745312       0.30283118       0.02260244
O        1.23319162       0.22229340       0.06019323
H       -0.00655297      -1.22431698       0.90669888
H       -0.23436076      -1.19372043      -1.01021992
H       -1.25021233       0.93101741       0.91827733
H       -1.45101830       0.72921151      -1.03247668
H       -2.17915139      -0.44905353       0.11723061
H        1.41733845       0.73991170      -0.82195471
