9
Properties=species:S:1:pos:R:3 -97086.09174538722=T pbc="F F F"
C        0.03428626       0.66604971      -0.03938816
C       -1.23724481      -0.27603773       0.00749891
O        1.13012014      -0.31169409       0.06495538
H        0.10365022       1.35290879      -0.88736137
H        0.00314448       1.25079339       0.94839572
H       -1.26559781      -0.83097394       0.85771235
H       -2.21307298       0.22518203       0.04696964
H       -1.44936070      -0.97940445      -0.82557915
H        1.20883136      -0.71550021      -0.79132632
