9
Properties=species:S:1:pos:R:3 -97084.99098038406=T pbc="F F F"
C       -0.04619622      -0.53918065      -0.01019298
C       -1.29944774       0.25904878      -0.00503750
O        1.23137678       0.24133268       0.07162301
H       -0.02837222      -1.38637502       0.66128218
H       -0.00409140      -1.09715850      -0.94782097
H       -2.23879763      -0.25107414      -0.35279535
H       -1.62478262       0.50832550       1.03628268
H       -1.09473032       1.29856318      -0.55118436
H        1.47028319       0.43307644      -0.80112670
