9
Properties=species:S:1:pos:R:3 -97082.8753400015=T pbc="F F F"
C        0.04381885      -0.59958841      -0.03600204
C       -1.36613741       0.27567287       0.00022394
O        1.20519811       0.25946531       0.06234989
H        0.00368850      -1.25919036       0.84034912
H        0.02799544      -1.21964806      -0.86223465
H       -1.91836615       0.03581414       0.95246285
H       -1.04925887       1.29379833       0.03121194
H       -1.93234102       0.00590609      -0.87092657
H        1.48553406       0.88222390      -0.65439694
