9
Properties=species:S:1:pos:R:3 -97085.85647453304=T pbc="F F F"
C        0.03143562      -0.64544957       0.00691876
C       -1.25121802       0.25052156      -0.02504673
O        1.11788964       0.32124568       0.05246533
H        0.05978441      -1.20693340       0.95429751
H        0.11324142      -1.33830990      -0.88234140
H       -1.64578168       0.41294741       1.06178052
H       -1.04227326       1.31407499      -0.18728198
H       -2.06086034       0.00756986      -0.70532502
H        1.35790968       0.41458914      -0.85794585
