9
Properties=species:S:1:pos:R:3 -97087.93981966213=T pbc="F F F"
C       -0.05561427      -0.56680033      -0.02767564
C       -1.21383763       0.25898106       0.00181796
O        1.16752856       0.23479561       0.07136699
H       -0.03457948      -1.26825884       0.82776817
H       -0.05023606      -1.22139571      -1.02057727
H       -1.13192673       1.01492811       0.78214063
H       -1.27149652       0.93857039      -0.89290021
H       -2.12646151      -0.20560150       0.28901413
H        1.20032115       0.68053222      -0.81020843
