9
Properties=species:S:1:pos:R:3 -97084.95346126174=T pbc="F F F"
C        0.00729205       0.58572418      -0.04006406
C       -1.31286340      -0.25469073       0.01023987
O        1.18449223      -0.28334563       0.08370034
H        0.30725754       1.21468442      -0.93735787
H        0.07473339       1.38657693       0.75049649
H       -2.23105068       0.22281336      -0.21849869
H       -1.25137993      -1.10038372      -0.76815619
H       -1.44908839      -0.52886913       1.05142292
H        1.29599121      -0.63947963      -0.85118031
