9
Properties=species:S:1:pos:R:3 -97076.24416134482=T pbc="F F F"
C        0.01801289      -0.66176753      -0.01619391
C       -1.26892327       0.26926872       0.02065314
O        1.13080477       0.37046734      -0.02078184
H        0.27339534      -1.29899731       0.91332705
H       -0.27547788      -1.34184512      -0.82132343
H       -1.30442933       1.08775451      -0.72383473
H       -2.25991423      -0.28463652      -0.09745886
H       -1.30790459       0.90352345       0.88976430
H        1.82201386      -0.27196844       0.11625314
