9
Properties=species:S:1:pos:R:3 -97092.99213623475=T pbc="F F F"
C       -0.00338665      -0.61691720       0.01435505
C       -1.23338436       0.26239140      -0.01979336
O        1.11848025       0.33087604       0.02449643
H       -0.05365470      -1.21261144       0.88677845
H       -0.03368205      -1.18710232      -0.89211695
H       -1.45094822       0.73284571      -0.92083487
H       -2.12498917      -0.29899902       0.29275868
H       -1.19207314       1.13651407       0.65765219
H        1.83027464      -0.20061183      -0.34826058
