9
Properties=species:S:1:pos:R:3 -97087.33772690601=T pbc="F F F"
C       -0.00010214      -0.53304758      -0.04020706
C       -1.32183288       0.24863492       0.01269915
O        1.23692680       0.22378408       0.05039091
H       -0.00426285      -0.95295035       1.00905164
H       -0.13349065      -1.30769074      -0.77121157
H       -1.44869286       0.93738617      -0.89073374
H       -2.25388842      -0.42572158      -0.02969515
H       -1.36823956       0.87406138       0.93918461
H        1.31770238       0.70975211      -0.72880418
