9
Properties=species:S:1:pos:R:3 -97084.5946910802=T pbc="F F F"
C        0.01998221       0.60636108      -0.03145813
C       -1.32675165      -0.27344899       0.00364447
O        1.21804094      -0.27164057       0.06124861
H       -0.08516997       1.12314143      -1.01810147
H        0.17027241       1.36720730       0.71604642
H       -1.11276971      -1.04378366       0.73439602
H       -2.07767417       0.38660269       0.56905968
H       -1.77419810      -0.67240063      -0.86443342
H        1.10782569      -0.81356141      -0.77785474
