9
Properties=species:S:1:pos:R:3 -97092.414630334=T pbc="F F F"
C       -0.02107565      -0.53848584      -0.03640630
C       -1.29008165       0.25640360       0.01333745
O        1.18958347       0.23208442       0.06086123
H        0.06966539      -1.23422450       0.82665178
H        0.08372115      -1.25979421      -0.94131560
H       -2.08424243      -0.34408787      -0.28384952
H       -1.41705895       0.54412648       1.06338455
H       -1.21809244       1.14829502      -0.69295407
H        1.29817976       0.82104195      -0.66315213
