9
Properties=species:S:1:pos:R:3 -97080.76977171107=T pbc="F F F"
C       -0.03780874      -0.53848370      -0.04941673
C       -1.24457320       0.24996732       0.03143030
O        1.19297545       0.23106326       0.05624231
H        0.04242592      -1.29980158       0.77699184
H        0.10886506      -1.24499463      -0.87893536
H       -0.86045616       1.28201311       0.17736340
H       -1.92211351       0.34855671      -0.83381151
H       -1.95724476      -0.14578683       0.72274455
H        0.92423942       0.82818669      -0.64279778
