9
Properties=species:S:1:pos:R:3 -97073.4806388189=T pbc="F F F"
C        0.06198734      -0.52445587      -0.04234566
C       -1.39703047       0.19519034       0.02275327
O        1.23309171       0.25555296       0.06448660
H        0.16145256      -1.27254709       0.74226447
H        0.16511309      -1.34020905      -0.88351149
H       -2.22857282      -0.07678829       0.69031897
H       -1.12340407       1.12390258       0.28363387
H       -1.74834883       0.49933094      -0.98860128
H        1.09982959       0.93100830      -0.63427046
