9
Properties=species:S:1:pos:R:3 -97081.33028540801=T pbc="F F F"
C        0.07830794      -0.62639258      -0.02524820
C       -1.31675823       0.24291381       0.02914990
O        1.17358624       0.30193595       0.02684835
H        0.37437626      -1.14971013       0.93926215
H        0.05643606      -1.27232258      -0.82028994
H       -1.55686009       0.82141818       0.95177363
H       -1.36420704       0.88207302      -0.84311665
H       -2.17056045      -0.46358380      -0.18758850
H        0.78116535       0.95619858      -0.51260036
