9
Properties=species:S:1:pos:R:3 -97085.15133561601=T pbc="F F F"
C        0.04583964      -0.62007561      -0.04493067
C       -1.30287169       0.25232696      -0.00013221
O        1.14217559       0.28536850       0.07670718
H        0.07456593      -1.27901016       0.89262574
H        0.17219955      -1.15273150      -1.02914460
H       -1.46135559       0.96596344      -0.86983971
H       -2.30864747      -0.25154511       0.18435315
H       -1.09078568       0.81497207       0.90696808
H        1.45413293       0.75206624      -0.76580534
