9
Properties=species:S:1:pos:R:3 -97082.2221911603=T pbc="F F F"
C        0.00521713       0.44809203      -0.03316815
C       -1.35121427      -0.21149043      -0.02371731
O        1.24425333      -0.21349088       0.06671145
H        0.10712144       1.28438156      -0.73465170
H       -0.11579743       1.07297227       0.88389243
H       -1.30134665      -1.02177280       0.68056382
H       -2.13630106       0.25158513       0.56478057
H       -1.72348283      -0.45776536      -0.99289207
H        1.44916069      -0.55832020      -0.78312669
