9
Properties=species:S:1:pos:R:3 -97083.7581015182=T pbc="F F F"
C        0.03483715       0.61090962      -0.00461480
C       -1.25085151      -0.22450245       0.01122556
O        1.07608871      -0.36090931       0.00029515
H        0.04780923       1.20269211      -0.93176318
H        0.22048653       1.40068029       0.84802565
H       -2.05899980      -0.01753774      -0.71333541
H       -0.85125247      -1.20684605      -0.32082440
H       -1.89389322      -0.42419942       0.97210173
H        1.93641570       0.17221954       0.06239823
