9
Properties=species:S:1:pos:R:3 -97084.12895497865=T pbc="F F F"
C       -0.01396981      -0.53953102      -0.02348974
C       -1.31011544       0.23574996       0.01918942
O        1.26042335       0.22329930       0.04041217
H        0.00291716      -1.11477782       0.88694434
H        0.02151248      -1.17655205      -0.88154419
H       -2.25475664      -0.37821857       0.14991797
H       -1.44870532       1.08192392       0.85252816
H       -1.54206946       0.70031812      -1.04841068
H        0.98292475       0.96045349      -0.54960290
