9
Properties=species:S:1:pos:R:3 -97082.72628680052=T pbc="F F F"
C       -0.00144614       0.58180216      -0.03285202
C       -1.34083187      -0.25036417       0.01260327
O        1.20794595      -0.29381631      -0.02718408
H       -0.02988135       1.02232031      -1.02850897
H       -0.07884243       1.38216585       0.75509620
H       -1.12064320      -1.00658326       0.69720324
H       -2.14510959       0.30332235       0.49204386
H       -1.68307937      -0.88621473      -0.85646283
H        1.86885148      -0.09830777       0.61315796
