9
Properties=species:S:1:pos:R:3 -97092.54683751457=T pbc="F F F"
C        0.03980095       0.57630474      -0.02975854
C       -1.30213347      -0.23717503       0.02686004
O        1.13014998      -0.33021535      -0.02582062
H        0.12818575       1.19925743      -0.91013115
H        0.02934722       1.32193376       0.86616306
H       -1.50911394      -0.71948759      -0.98815667
H       -1.21134896      -1.05048872       0.72147520
H       -2.13412149       0.35339459       0.25083249
H        1.79112819       0.09818836       0.50412091
