9
Properties=species:S:1:pos:R:3 -97089.97793078484=T pbc="F F F"
C        0.00614371      -0.65674143       0.00890457
C       -1.16150508       0.27532710       0.00638752
O        1.02738076       0.34114332       0.01421257
H        0.14569236      -1.27432441       0.91450406
H       -0.08377529      -1.21745262      -0.87253967
H       -2.14902272      -0.21247644       0.19603616
H       -1.06531332       1.17579957       0.66066936
H       -1.30496475       0.64678462      -1.01694141
H        1.90879537       0.00891238      -0.28937265
