9
Properties=species:S:1:pos:R:3 -97086.48534069883=T pbc="F F F"
C        0.00585732       0.50627023       0.02180067
C       -1.35843288      -0.23254764      -0.01378372
O        1.19477817      -0.28979354       0.04495484
H        0.26920766       1.24239638      -0.82312433
H       -0.02548832       1.29041769       0.79533389
H       -2.10334351       0.48953773      -0.26261072
H       -1.35436960      -0.99995735      -0.84869049
H       -1.46468044      -0.70447334       0.95496967
H        1.82156314       0.02214473      -0.62480025
