9
Properties=species:S:1:pos:R:3 -97085.42128292793=T pbc="F F F"
C       -0.05346467      -0.64499957      -0.01995481
C       -1.24217072       0.32401452       0.00377038
O        1.20690919       0.26502350       0.05148476
H       -0.03633878      -1.24038760       0.83994439
H       -0.09963636      -1.40895371      -0.86524913
H       -1.28289917       0.83251242       0.96851874
H       -1.20945066       0.92148801      -0.90438624
H       -2.17270299      -0.23217830       0.04256754
H        1.07341180       0.74331788      -0.70579057
