9
Properties=species:S:1:pos:R:3 -97075.94968148666=T pbc="F F F"
C       -0.07166784       0.60307460       0.00726049
C       -1.28994200      -0.31632131       0.00533284
O        1.19762518      -0.27813473       0.05677403
H        0.07936509       1.18385484      -0.94259267
H        0.13651084       1.24489874       0.86241323
H       -2.00222176       0.56110187       0.04324097
H       -1.35334238      -0.79256416      -1.11677397
H       -1.23278582      -0.93182442       0.93249095
H        1.57774835      -0.26558913      -0.82977024
