9
Properties=species:S:1:pos:R:3 -97081.72079294629=T pbc="F F F"
C       -0.06792353      -0.62865605      -0.02033358
C       -1.23345693       0.31672650       0.01951584
O        1.14979310       0.29909513      -0.02293611
H       -0.01178927      -1.18717622       0.89968549
H       -0.01638129      -1.28623505      -0.89494672
H       -2.04382414      -0.22357959      -0.42428458
H       -1.59214328       0.44968792       1.10762213
H       -1.07877187       1.14303280      -0.71899501
H        1.99017317       0.07150504       0.40466816
