9
Properties=species:S:1:pos:R:3 -97086.42339280297=T pbc="F F F"
C        0.02978871      -0.52579465      -0.01120375
C       -1.26656450       0.25456143       0.02487820
O        1.18004063       0.23400789       0.05096120
H       -0.02014778      -1.29738963       0.68879170
H       -0.11625644      -1.19948329      -0.91456606
H       -1.30894689       1.10788880      -0.71156130
H       -2.03632957      -0.45710146      -0.42852233
H       -1.65353351       0.55491171       1.04727373
H        1.13319059       0.80682630      -0.65302634
