9
Properties=species:S:1:pos:R:3 -97090.16051143626=T pbc="F F F"
C        0.00279952       0.54229856      -0.02425993
C       -1.28617494      -0.25434434       0.02809295
O        1.15174146      -0.29289764      -0.04228921
H        0.00805911       1.29496658      -0.87293396
H        0.08649467       1.11133471       0.95390549
H       -2.08943699       0.37242468      -0.44530755
H       -1.20806708      -1.11057245      -0.69206143
H       -1.62936333      -0.45989476       1.07489182
H        1.83427208       0.01161784       0.60702709
