9
Properties=species:S:1:pos:R:3 -97078.42018817145=T pbc="F F F"
C        0.02079003      -0.50475363      -0.07148147
C       -1.31959683       0.23261553       0.02314251
O        1.20261500       0.20830719       0.07646455
H       -0.00407223      -1.14383276       0.86908805
H       -0.17348481      -0.99846360      -1.05160528
H       -1.29318156       0.61515527       1.03785039
H       -1.47167030       1.21124547      -0.70691054
H       -2.03597560      -0.54964377      -0.03291790
H        1.35668186       0.79985486      -0.75348900
