9
Properties=species:S:1:pos:R:3 -97088.21498310713=T pbc="F F F"
C        0.01367459       0.52020740      -0.01047637
C       -1.32258938      -0.24960663      -0.00255009
O        1.15912979      -0.30741572       0.00226561
H        0.03569795       1.13948843      -0.86448163
H        0.00909424       1.24528281       0.79753503
H       -1.65272427      -0.44886525      -1.05309946
H       -1.27413936      -1.12814927       0.65900479
H       -1.85880003       0.58863865       0.54821996
H        1.92966477       0.26051815       0.03196831
