9
Properties=species:S:1:pos:R:3 -97090.33240042957=T pbc="F F F"
C       -0.02869101       0.54274054      -0.03129400
C       -1.26488773      -0.25095863       0.03547278
O        1.21112224      -0.22264860       0.05242807
H        0.01322658       1.20334889      -0.85678476
H       -0.03617491       1.29543716       0.72297749
H       -1.48011045      -0.87245755       0.86508722
H       -2.09959122       0.40718412      -0.18424848
H       -1.25837323      -1.01592246      -0.84150907
H        1.04205478      -0.95819252      -0.58734996
