9
Properties=species:S:1:pos:R:3 -97078.33027949267=T pbc="F F F"
C       -0.00003079       0.54316965      -0.01531025
C       -1.32047647      -0.28105226       0.00111856
O        1.21572167      -0.23932998       0.05160007
H       -0.20363826       1.22595483      -0.90787583
H        0.15039596       1.42305714       0.68121235
H       -1.34002787      -1.01724938       0.81886331
H       -2.06106082       0.41238870       0.43691149
H       -1.53293064      -0.56183125      -1.05460994
H        1.41593024      -0.80496630      -0.62445405
