9
Properties=species:S:1:pos:R:3 -97087.4423950454=T pbc="F F F"
C        0.03706014      -0.53901168      -0.03123303
C       -1.28214109       0.21918670       0.00260669
O        1.15236039       0.24935662       0.07395497
H        0.09158168      -1.36689469       0.76983780
H        0.14601864      -1.00688226      -0.97985655
H       -1.62968944       0.65766883       1.04980024
H       -1.26048548       1.20049294      -0.56150102
H       -2.06926043      -0.42678867      -0.35299890
H        1.25800497       0.79303449      -0.75815170
