9
Properties=species:S:1:pos:R:3 -97078.98328000582=T pbc="F F F"
C       -0.03680749      -0.57094778      -0.00538607
C       -1.24938200       0.27252831      -0.00419312
O        1.16867765       0.31457640       0.02787582
H        0.22426663      -1.20324424       0.90462582
H       -0.06822549      -1.20525408      -0.87598660
H       -1.48600740       0.88681977      -0.91349169
H       -2.18550381      -0.50289542       0.08199542
H       -1.60792775       0.78059854       0.83462473
H        1.89007340      -0.19535082      -0.36011937
