9
Properties=species:S:1:pos:R:3 -97080.2389144329=T pbc="F F F"
C        0.06595897      -0.53408479      -0.03408175
C       -1.39700810       0.22649825      -0.00036313
O        1.20894121       0.31858134      -0.03150477
H        0.04501804      -1.23080969       0.86491590
H        0.04199508      -1.25822192      -0.92728505
H       -1.96297875       0.43869527      -0.81640220
H       -2.01805548      -0.31439847       0.72765386
H       -1.17060635       1.12769649       0.46292180
H        1.72642707      -0.15669851       0.59832862
