9
Properties=species:S:1:pos:R:3 -97087.30161093164=T pbc="F F F"
C       -0.00108532       0.54256363      -0.04167402
C       -1.29181115      -0.25491241      -0.00004163
O        1.14846582      -0.31686283      -0.01835034
H       -0.02412192       1.32809871      -0.80292827
H        0.12180111       1.21511554       0.83743477
H       -1.93136435       0.49553833       0.36967529
H       -1.51238451      -0.79398019      -0.90014393
H       -1.30657511      -0.85345281       0.88663663
H        1.81995546       0.21250960       0.39725980
