9
Properties=species:S:1:pos:R:3 -97089.27430435202=T pbc="F F F"
C       -0.03039410      -0.57444649      -0.00308148
C       -1.24019863       0.25570320      -0.01014755
O        1.10957786       0.31082695       0.01055311
H        0.12313015      -1.28257482       0.79018258
H        0.00054869      -1.16599117      -0.93426534
H       -1.11920181       0.77720253       1.01480240
H       -1.24690835       0.94610744      -0.93288730
H       -2.18926160      -0.26747684       0.13595990
H        1.95061704      -0.14509466      -0.08376206
