9
Properties=species:S:1:pos:R:3 -97079.38241422242=T pbc="F F F"
C        0.01957187       0.54858908      -0.05253061
C       -1.32594635      -0.24214430       0.00387288
O        1.19782505      -0.23352677       0.05411222
H        0.20591709       1.23638379      -0.80804985
H        0.01206302       1.18683759       0.99223649
H       -1.76212610      -0.38213031       1.06186803
H       -2.10514785       0.19451125      -0.66877243
H       -0.91131155      -1.17181380      -0.30208211
H        1.10502960      -1.00633470      -0.55464110
