9
Properties=species:S:1:pos:R:3 -97082.17879448128=T pbc="F F F"
C        0.02566964       0.63628565      -0.00381149
C       -1.26637823      -0.27754094      -0.00333943
O        1.10972313      -0.33960211       0.02186664
H        0.06171784       1.28632612      -0.83750616
H        0.02204961       1.22453935       0.94387627
H       -1.97707280      -0.15435173       0.82217340
H       -2.03359146       0.02197199      -0.77929666
H       -0.97548645      -1.26206715      -0.15979180
H        2.06317637       0.00180158      -0.25134963
