9
Properties=species:S:1:pos:R:3 -97079.3310799678=T pbc="F F F"
C        0.06915715      -0.59603404      -0.02983701
C       -1.31849385       0.25794033      -0.01309702
O        1.19758663       0.26816616       0.04756402
H        0.05761554      -1.29372798       0.79952162
H       -0.16358102      -1.22734890      -0.93556447
H       -1.92471798       0.42239632      -0.87826754
H       -1.95848882      -0.22505842       0.79913300
H       -1.18203368       1.11973087       0.62091425
H        1.04027503       0.97364038      -0.64940420
