9
Properties=species:S:1:pos:R:3 -97088.61264487986=T pbc="F F F"
C       -0.01360997      -0.62844752       0.02234552
C       -1.26266329       0.28085516      -0.01216577
O        1.14593271       0.30905996       0.03977540
H        0.16372514      -1.16308360       0.92114764
H       -0.06912704      -1.27812226      -0.84981550
H       -2.04385571      -0.42680192      -0.24129385
H       -1.41426811       0.88279187       0.96497366
H       -1.29212694       1.03191159      -0.78998067
H        1.66523612       0.18702123      -0.75750422
