9
Properties=species:S:1:pos:R:3 -97082.13400053517=T pbc="F F F"
C        0.01039210      -0.61172889      -0.00269017
C       -1.28533397       0.25558852      -0.01665254
O        1.15254738       0.30645326       0.06658642
H       -0.09016093      -1.23195369       0.83733292
H        0.07114473      -1.31641801      -0.90811530
H       -1.84946566       0.34985178      -0.95081538
H       -1.88663009      -0.04927470       0.89676934
H       -1.06387314       1.39129317       0.07245659
H        1.70773628       0.23336816      -0.77409274
