9
Properties=species:S:1:pos:R:3 -97086.93580976264=T pbc="F F F"
C        0.00524486       0.49370517      -0.04301183
C       -1.29868615      -0.21644508       0.01369999
O        1.16076525      -0.28013111      -0.03355004
H        0.08934049       1.08129109      -0.89627789
H        0.05446629       1.21669200       0.80261281
H       -1.29652814      -0.81839537       0.94237866
H       -2.21754679       0.47806634       0.05551703
H       -1.32627200      -0.99321006      -0.75031677
H        1.67513710       0.18015152       0.72756065
