9
Properties=species:S:1:pos:R:3 -97087.92765271127=T pbc="F F F"
C        0.03493291       0.53305793      -0.02178078
C       -1.29463450      -0.22871371       0.03594504
O        1.13033196      -0.31800924      -0.01995003
H       -0.03291201       1.21159997      -0.90835514
H        0.13832266       1.16618061       0.87528273
H       -2.01469364       0.10750628       0.79202638
H       -1.73178817      -0.06943235      -0.99965009
H       -1.14636760      -1.25799498       0.02785987
H        1.84730141       0.26540335       0.36080632
