9
Properties=species:S:1:pos:R:3 -97088.2326905276=T pbc="F F F"
C        0.01445472      -0.54280269      -0.05504753
C       -1.29845866       0.23496820       0.00401585
O        1.19550327       0.24000824       0.08186192
H        0.04969771      -1.24526444       0.83243678
H        0.01940926      -1.13130450      -1.01159598
H       -1.58995032       0.77939825      -0.94937068
H       -2.13949643      -0.36010160       0.46225934
H       -1.35082432       1.00110876       0.74349704
H        1.32607449       0.81239118      -0.76880904
