9
Properties=species:S:1:pos:R:3 -97088.05057311179=T pbc="F F F"
C       -0.05270439      -0.58373544      -0.03818238
C       -1.26875386       0.25515976       0.02928067
O        1.20215904       0.23964956       0.05811070
H        0.13983746      -1.24382464       0.87685007
H        0.13185619      -1.13951543      -0.96203884
H       -2.10753924      -0.13490565      -0.62914781
H       -1.68238760       0.49648289       1.03118134
H       -1.00919834       1.24490925      -0.48492970
H        1.18267210       0.88573544      -0.64818281
