9
Properties=species:S:1:pos:R:3 -97072.97626142346=T pbc="F F F"
C       -0.02575214      -0.55223445      -0.02750830
C       -1.21752836       0.30331362       0.01026439
O        1.16692959       0.22652700       0.05845549
H       -0.01690901      -1.19508882       1.00225430
H       -0.10423462      -1.29787451      -0.98916569
H       -2.03405812      -0.41730645       0.16350220
H       -1.44164889       0.87761462       0.82948394
H       -1.47692844       0.56758768      -1.00417949
H        1.35728759       0.83377721      -0.72430605
