9
Properties=species:S:1:pos:R:3 -97085.23409989064=T pbc="F F F"
C        0.01043609       0.47683751      -0.01816480
C       -1.35362423      -0.24301373       0.00842862
O        1.22638438      -0.21812053       0.07033472
H        0.06743114       1.23213976      -0.85898116
H        0.00435535       1.28975702       0.72870361
H       -1.95604078       0.54241653      -0.50552596
H       -1.20307194      -1.17233225      -0.54972481
H       -1.74620928      -0.47809275       0.99018437
H        1.36303649      -0.73625683      -0.80499210
