9
Properties=species:S:1:pos:R:3 -97090.09213228973=T pbc="F F F"
C        0.00552252       0.59120398       0.00921062
C       -1.26905264      -0.26098586      -0.00264005
O        1.13476559      -0.31929372       0.03725556
H        0.06390766       1.13855881      -0.99881987
H        0.08350645       1.34392366       0.84127664
H       -2.07927674       0.12112981      -0.67407600
H       -1.05041057      -1.26218074      -0.34775524
H       -1.85784946      -0.23973855       0.92172642
H        1.87520587       0.03387941      -0.41185936
