9
Properties=species:S:1:pos:R:3 -97077.23619848056=T pbc="F F F"
C        0.00605963       0.53614906      -0.00086518
C       -1.31892450      -0.24281815      -0.02432175
O        1.20213163      -0.26641869       0.05605283
H        0.11160021       1.49526807      -0.77773970
H       -0.04795256       0.97602368       1.03111014
H       -1.55900677      -0.92450021       0.89877409
H       -2.20586362       0.54559804      -0.05207568
H       -1.40019881      -1.02071895      -0.90588341
H        1.65477725      -0.33605358      -0.78388805
