9
Properties=species:S:1:pos:R:3 -97088.66020204582=T pbc="F F F"
C       -0.04037978      -0.54660519      -0.04179021
C       -1.32707686       0.25538178       0.01781887
O        1.23607792       0.22869359       0.06292860
H        0.12395418      -1.02841857       0.92855000
H        0.03427612      -1.28061772      -0.84099011
H       -1.38955167       1.00382585      -0.81237122
H       -2.17574955      -0.41737128      -0.04621254
H       -1.27391214       0.82291177       0.90335645
H        1.34560146       0.73768392      -0.84563242
