9
Properties=species:S:1:pos:R:3 -97090.24766500285=T pbc="F F F"
C        0.00328530      -0.62628831      -0.00041732
C       -1.26885415       0.27292202       0.01069412
O        1.12272062       0.35017732      -0.00011867
H        0.06184561      -1.34420089       0.87718739
H        0.13981497      -1.17038578      -0.94446991
H       -2.04523699      -0.40455818      -0.48551946
H       -1.55152636       0.54714936       1.01724304
H       -1.29532645       1.17634239      -0.60627684
H        1.94094973      -0.15444331       0.02135520
