9
Properties=species:S:1:pos:R:3 -97086.16076652575=T pbc="F F F"
C       -0.02920621      -0.58587229      -0.02109074
C       -1.21683123       0.28615558       0.01676897
O        1.18988717       0.22404955       0.03162266
H       -0.09558872      -1.31179361       0.82415210
H       -0.09071806      -1.17073085      -0.99974113
H       -2.25744058      -0.32149426       0.14777894
H       -1.15789731       0.93030020       0.87998183
H       -1.52053305       0.84611682      -0.91658381
H        1.07415925       1.04044830      -0.38600396
