9
Properties=species:S:1:pos:R:3 -97088.5107769047=T pbc="F F F"
C        0.01205812       0.58445435      -0.03740630
C       -1.27124741      -0.23844286      -0.00030741
O        1.16749596      -0.27761043       0.07147245
H        0.16882690       1.17283842      -0.93277279
H        0.02592113       1.25682457       0.86485886
H       -2.07304951       0.17444713       0.69172765
H       -1.87481997      -0.54315731      -0.87151420
H       -1.01582927      -1.22372609       0.37755128
H        1.23289377      -0.55124729      -0.81511976
