9
Properties=species:S:1:pos:R:3 -97087.35729724288=T pbc="F F F"
C        0.05640891       0.52448016      -0.00707013
C       -1.34470153      -0.21901862      -0.00915936
O        1.14394701      -0.30628781       0.01068938
H        0.10189612       1.30096035      -0.84974269
H        0.00511123       1.17891940       0.91973180
H       -1.96853421       0.43843295       0.52960910
H       -1.77575692      -0.53325027      -0.98010702
H       -1.18986592      -1.19165130       0.55127641
H        2.01136010       0.03052046      -0.14717420
