9
Properties=species:S:1:pos:R:3 -97084.26108374163=T pbc="F F F"
C       -0.00439885      -0.58048335      -0.03681712
C       -1.25049645       0.26193838       0.02863646
O        1.12274406       0.24910084       0.06684936
H        0.22135503      -1.33385095       0.80369316
H        0.17091756      -1.15580635      -0.93645739
H       -1.09299621       0.88098471      -0.90681685
H       -2.19754875      -0.40175620      -0.07479248
H       -1.17686333       0.93161243       0.89294524
H        1.19819598       0.91826551      -0.74211371
