9
Properties=species:S:1:pos:R:3 -97091.99194767386=T pbc="F F F"
C       -0.01089241       0.60041950      -0.01047633
C       -1.28511277      -0.27758548       0.00415469
O        1.16185611      -0.32988078       0.00378559
H        0.00494352       1.16086636      -0.94692942
H       -0.17392468       1.33668939       0.83180752
H       -2.11974310       0.30255005      -0.29703441
H       -1.20208664      -1.13531865      -0.67894416
H       -1.39678980      -0.58912946       1.03265913
H        1.87941267       0.31586034       0.07363196
