9
Properties=species:S:1:pos:R:3 -97083.78666510813=T pbc="F F F"
C        0.04246551      -0.64180690      -0.02315095
C       -1.31156607       0.26366381      -0.00366481
O        1.14082940       0.31985912       0.06576335
H        0.17645767      -1.16066382       1.00757053
H        0.06187923      -1.38001527      -0.84025821
H       -1.68160235       0.43666906       1.01112592
H       -0.98494453       1.20660122      -0.52145410
H       -2.14296214      -0.09510977      -0.53834152
H        1.57634471       0.41860719      -0.84306411
