9
Properties=species:S:1:pos:R:3 -97082.89737816068=T pbc="F F F"
C        0.02359456      -0.56370261      -0.01709272
C       -1.33984773       0.21433620      -0.00760885
O        1.16841312       0.33623812      -0.01826089
H        0.13143675      -1.14415275       0.94294083
H        0.17297070      -1.26269164      -0.72896439
H       -2.29026770      -0.28329870      -0.29323656
H       -1.50790838       0.70456705       1.03465644
H       -1.30304787       1.06325468      -0.56619685
H        1.92565332      -0.25417566       0.19473135
