9
Properties=species:S:1:pos:R:3 -97090.53310359793=T pbc="F F F"
C        0.01511751       0.60037907      -0.01196740
C       -1.29126473      -0.25900847       0.02161537
O        1.18732296      -0.27242899       0.05880949
H       -0.00581619       1.01177819      -0.98858832
H        0.16021453       1.42499209       0.72411388
H       -2.14852045       0.35973140      -0.39306115
H       -1.14957625      -1.07388871      -0.65341251
H       -1.61294706      -0.72797585       1.02256007
H        1.10783473      -0.73563260      -0.75983791
