9
Properties=species:S:1:pos:R:3 -97086.31491469791=T pbc="F F F"
C       -0.00848501      -0.61615734      -0.01866289
C       -1.19030841       0.27292856       0.02674327
O        1.12859710       0.24682293       0.04475067
H       -0.01393718      -1.42589595       0.73566700
H       -0.08343336      -1.04856583      -1.12609976
H       -1.18284843       0.96451116      -0.85626315
H       -2.18459341      -0.17095266      -0.00940285
H       -1.20697742       0.83371310       0.89534855
H        1.03396270       1.01669743      -0.44568702
