9
Properties=species:S:1:pos:R:3 -97075.6896933932=T pbc="F F F"
C       -0.00628720       0.55058888      -0.04214424
C       -1.35314775      -0.23467547       0.01360986
O        1.24857427      -0.23651543       0.06466380
H        0.40640774       1.08021832      -0.93705489
H        0.07586183       1.25890063       0.76603487
H       -1.48242695      -1.17850177      -0.55398459
H       -1.72979963      -0.46334398       1.04142552
H       -2.24695137       0.32988539      -0.44213697
H        1.34768778      -1.03501389      -0.56079125
