9
Properties=species:S:1:pos:R:3 -97084.43719787987=T pbc="F F F"
C       -0.03452997       0.58373684      -0.00729021
C       -1.23150360      -0.29697830       0.00091522
O        1.14195549      -0.32650773      -0.00152236
H        0.07938214       1.14984159      -0.96016209
H       -0.10778661       1.37892019       0.79066828
H       -1.95687891       0.55267669       0.21682570
H       -1.63870391      -0.72667460      -0.92121105
H       -1.30097099      -0.89790977       0.85393452
H        1.87574080       0.31067555       0.12001141
