9
Properties=species:S:1:pos:R:3 -97086.55584840957=T pbc="F F F"
C       -0.03151728       0.57982086       0.01911350
C       -1.29589775      -0.27558092      -0.02344959
O        1.19016224      -0.29900641       0.05404596
H        0.13820387       1.28641913      -0.80793531
H        0.01733264       1.18005657       0.94125625
H       -1.71283759      -0.79074548       0.94895697
H       -2.10537812       0.49273916      -0.30726656
H       -1.16975471      -1.00270038      -0.84410109
H        1.74899872      -0.04285314      -0.73702975
