9
Properties=species:S:1:pos:R:3 -97089.52216529222=T pbc="F F F"
C        0.01964525       0.54491344      -0.01308386
C       -1.27388398      -0.25598889      -0.00374477
O        1.15770477      -0.26290781       0.07251899
H        0.14140477       1.19238671      -0.94749089
H       -0.04253961       1.20722301       0.86424785
H       -2.12523967       0.23339069      -0.61095460
H       -1.16872414      -1.25377374      -0.35057326
H       -1.72388715      -0.21561853       0.95620068
H        1.47937662      -0.43124564      -0.86198313
