9
Properties=species:S:1:pos:R:3 -97078.80202351035=T pbc="F F F"
C       -0.07958492       0.53796610      -0.03054524
C       -1.29201137      -0.27163073       0.03671516
O        1.23272619      -0.26895083      -0.05365730
H       -0.14287641       1.21057901      -0.83069313
H       -0.00204927       1.31526520       0.76437514
H       -2.09126433       0.48801514       0.11603096
H       -1.52607454      -0.94840296      -0.92863823
H       -1.26271551      -1.00724403       0.87585406
H        1.79208294       0.03902277       0.78118725
