9
Properties=species:S:1:pos:R:3 -97079.70496360214=T pbc="F F F"
C        0.07403051      -0.59268077      -0.02561221
C       -1.37340888       0.23252566       0.01901118
O        1.20616275       0.27753455       0.02485430
H        0.25823688      -1.30958737       0.85448772
H       -0.01238260      -1.26789436      -0.85992585
H       -1.17748428       1.06120202      -0.66444171
H       -2.18398997      -0.38364909      -0.19079677
H       -1.28884918       0.77222266       0.97530811
H        0.73326667       1.01133653      -0.43048999
