9
Properties=species:S:1:pos:R:3 -97088.02720485876=T pbc="F F F"
C        0.02500659       0.54274232      -0.04481225
C       -1.30136875      -0.24682292       0.01572627
O        1.20893525      -0.24141725       0.05567713
H        0.10530678       1.16720313      -0.94452894
H        0.06767640       1.31599653       0.83727050
H       -1.90159293      -0.05899739       0.99859309
H       -1.97607798       0.20307271      -0.72264411
H       -1.25373179      -1.33641283      -0.17397070
H        0.96916541      -0.98285688      -0.53203448
