9
Properties=species:S:1:pos:R:3 -97087.57545205305=T pbc="F F F"
C       -0.02327177      -0.56243569       0.00076485
C       -1.26286053       0.26429879      -0.00699765
O        1.18117694       0.26927411       0.06307133
H        0.07624765      -1.30180128       0.81876751
H        0.03351514      -1.08969095      -0.95674458
H       -1.26246326       0.82442771       0.92948102
H       -1.41748872       0.93858847      -0.77909666
H       -2.28061157      -0.38188017      -0.02257757
H        1.41842241       0.28664568      -0.91660457
