9
Properties=species:S:1:pos:R:3 -97082.66355549454=T pbc="F F F"
C        0.01784628       0.58035884      -0.03400088
C       -1.26683391      -0.23631945      -0.00127412
O        1.17190811      -0.25747491       0.02738695
H        0.27999107       1.29986874      -0.74592469
H        0.10460983       1.10989692       0.96732708
H       -1.99582470       0.24839881       0.69597592
H       -1.72792774      -0.26567462      -1.04448737
H       -1.20120334      -1.29607307       0.45723481
H        0.81280461      -1.10652122      -0.34476312
