9
Properties=species:S:1:pos:R:3 -97079.76515180182=T pbc="F F F"
C        0.01410941      -0.57025885      -0.03884138
C       -1.37330727       0.26129639       0.00542714
O        1.23954094       0.25780742       0.07705108
H       -0.04576371      -1.19330903       0.87488231
H        0.12224311      -0.93677671      -0.95052397
H       -2.03421063      -0.40372747      -0.56717502
H       -1.79212464       0.29308273       1.00898208
H       -1.35240585       1.31114365      -0.44242631
H        1.61358354       0.51675906      -0.74873793
