9
Properties=species:S:1:pos:R:3 -97085.19651839796=T pbc="F F F"
C       -0.04436645      -0.57519950      -0.03938661
C       -1.26527114       0.27269060       0.03191351
O        1.19373832       0.23827844       0.05744093
H        0.04045766      -1.39963991       0.85826529
H       -0.05379893      -1.17034229      -1.00086292
H       -1.09218732       1.17581282      -0.69159137
H       -2.23275945      -0.23145354      -0.30288987
H       -1.21326195       0.69769560       1.04671888
H        1.19968704       0.74819718      -0.73228818
