9
Properties=species:S:1:pos:R:3 -97084.29240181984=T pbc="F F F"
C       -0.03562013      -0.58865656      -0.01407090
C       -1.29007462       0.26804970       0.00013792
O        1.23384769       0.24171454       0.01464364
H        0.14184387      -1.14042537       0.91758741
H        0.13888650      -1.39376199      -0.83324788
H       -1.63052353       0.68321020      -0.97083203
H       -2.05286401      -0.46416242       0.31228410
H       -1.35045853       1.10308276       0.75106862
H        0.95587773       1.19328255      -0.24336775
