9
Properties=species:S:1:pos:R:3 -97088.88530932616=T pbc="F F F"
C       -0.01108427       0.55906597      -0.04985160
C       -1.31330353      -0.25496399       0.02263436
O        1.21650010      -0.23007117       0.05390731
H       -0.00653489       1.08138971      -1.01712723
H        0.16586530       1.20807651       0.82422771
H       -1.33194814      -0.69889407       0.98530097
H       -2.06548145       0.47018285       0.02735214
H       -1.59463497      -1.03997242      -0.78974672
H        1.29525331      -0.99027629      -0.56148411
