9
Properties=species:S:1:pos:R:3 -97087.58882948419=T pbc="F F F"
C        0.00254518      -0.47338470       0.00418357
C       -1.36111319       0.20902505       0.00218070
O        1.21885928       0.28670623       0.01024839
H        0.10471653      -1.19557603       0.89501178
H        0.02383550      -1.12640900      -0.88627044
H       -1.52729260       0.90749373      -0.90704901
H       -2.18899339      -0.53500398      -0.11765135
H       -1.59816485       0.79669762       0.95337561
H        2.01795414      -0.24975328      -0.17584429
