9
Properties=species:S:1:pos:R:3 -97079.74468044036=T pbc="F F F"
C       -0.02170418      -0.65098903      -0.00996047
C       -1.22365839       0.29152830       0.00968628
O        1.16707806       0.25809937       0.01884502
H        0.10657040      -1.32269873       0.83459373
H        0.09232265      -1.14774295      -0.98077608
H       -2.06555929      -0.33057019      -0.42479687
H       -1.67558105       0.55326533       1.01861604
H       -0.92990671       1.23076396      -0.70193991
H        0.77809705       1.20079566      -0.04151624
