9
Properties=species:S:1:pos:R:3 -97077.16871172925=T pbc="F F F"
C       -0.02637818       0.52853817      -0.03413412
C       -1.29810174      -0.22905219       0.02688419
O        1.18462159      -0.22857269       0.05919352
H        0.14470354       1.33725451      -0.83604722
H        0.18748612       1.23533952       0.86875161
H       -1.55096748      -0.74084516       0.99760094
H       -2.21817595       0.18638321      -0.47822711
H       -0.97444526      -1.04615309      -0.71197683
H        1.38095026      -0.91029276      -0.69322174
