9
Properties=species:S:1:pos:R:3 -97085.69750115745=T pbc="F F F"
C       -0.04896000      -0.60616440      -0.02053049
C       -1.22980359       0.29660118       0.00569040
O        1.18926309       0.24335256       0.05397332
H       -0.01735962      -1.20069535       0.82085740
H       -0.17986565      -1.23862064      -0.94404760
H       -0.91725293       1.07789052       0.64011843
H       -1.78171149       0.65938471      -0.89456842
H       -2.07815066      -0.18196377       0.50201075
H        1.32589100       0.70773904      -0.80426793
