9
Properties=species:S:1:pos:R:3 -97085.34105333404=T pbc="F F F"
C       -0.05973541       0.60910479      -0.01652383
C       -1.21304337      -0.29280846       0.01029896
O        1.17189580      -0.24498337       0.07271930
H        0.07770306       1.14894231      -1.00831747
H       -0.09485844       1.39804316       0.71170172
H       -1.12324413      -1.15564813       0.62087926
H       -2.22157853       0.19487201       0.32840351
H       -1.19771185      -0.67961125      -0.99005237
H        1.11561200      -0.78462040      -0.74260426
