9
Properties=species:S:1:pos:R:3 -97078.22548025454=T pbc="F F F"
C        0.05384440      -0.63580930      -0.00357238
C       -1.23440436       0.27122765      -0.02293441
O        1.08489432       0.33801570       0.03062032
H       -0.16492731      -1.24643023       0.88796985
H       -0.01815577      -1.34444172      -0.84240265
H       -1.99375234      -0.52604207       0.16307482
H       -1.29049768       0.98886085       0.83465526
H       -1.64257457       0.99710726      -0.84548984
H        1.94857266       0.10740280      -0.36816234
