9
Properties=species:S:1:pos:R:3 -97081.97409208964=T pbc="F F F"
C       -0.06741314      -0.62884279      -0.01342509
C       -1.29350168       0.28611751       0.00402715
O        1.21490745       0.33805521      -0.00214034
H       -0.10865147      -1.36967664       0.88085495
H        0.11068869      -1.23803385      -0.88023395
H       -1.41209864       1.07136773      -0.79948317
H       -2.13143291      -0.35052670      -0.15309550
H       -1.48055229       0.88575361       0.96476324
H        1.94476331      -0.28329440       0.13306284
