9
Properties=species:S:1:pos:R:3 -97093.19548745101=T pbc="F F F"
C        0.01177561      -0.59144831      -0.02285283
C       -1.30851921       0.24652844       0.00394511
O        1.18128345       0.26707472       0.05662467
H        0.15147081      -1.30272237       0.81945548
H        0.16617631      -1.19458456      -0.96307418
H       -1.27491082       0.82213150       0.93159083
H       -1.20734037       1.01566907      -0.69646851
H       -2.25082827      -0.29849418      -0.06945553
H        1.10771066       0.82623284      -0.69559180
