9
Properties=species:S:1:pos:R:3 -97081.29667391813=T pbc="F F F"
C        0.02159697      -0.61902442       0.00574578
C       -1.26270373       0.26127259      -0.02232246
O        1.11958655       0.32370101       0.05253474
H       -0.10515566      -1.25371897       1.00298909
H        0.18086162      -1.32089966      -0.81710314
H       -1.88242064      -0.05903909      -0.86381733
H       -1.79011427       0.33040747       0.97599069
H       -0.91347202       1.33298140      -0.21517056
H        1.51929542       0.09258864      -0.71927747
