9
Properties=species:S:1:pos:R:3 -97080.84729190447=T pbc="F F F"
C        0.00138476       0.52080603      -0.03692067
C       -1.33075086      -0.23419824       0.01070327
O        1.20022576      -0.23682159       0.05902318
H        0.11149734       1.33305739      -0.93203887
H        0.19878932       1.28309895       0.74926973
H       -1.87220758       0.21399855       0.82693861
H       -1.96456705      -0.36880485      -0.83738334
H       -0.89969544      -1.24208137       0.27335994
H        1.20626398      -0.87332803      -0.70472070
