9
Properties=species:S:1:pos:R:3 -97089.89989699108=T pbc="F F F"
C        0.05104201      -0.56599482      -0.02033694
C       -1.27074708       0.25218413       0.02915800
O        1.15453439       0.24990015       0.05252099
H        0.08541624      -1.34473681       0.77105784
H       -0.11384280      -0.96363876      -1.03214998
H       -1.33552444       0.99344513       0.86679269
H       -1.33005981       0.76627335      -0.88903198
H       -2.11593344      -0.51504630       0.01778329
H        1.00946492       0.83409672      -0.67302905
