9
Properties=species:S:1:pos:R:3 -97079.65463668767=T pbc="F F F"
C        0.01877824       0.53552631      -0.05362904
C       -1.41164110      -0.24049939       0.03163673
O        1.28156097      -0.23496706       0.07781777
H        0.06014189       1.15300855      -0.98460068
H        0.03581149       1.20713082       0.83087428
H       -2.03113238       0.18028147      -0.72058239
H       -1.20068780      -1.40016580      -0.38370076
H       -1.95053995      -0.12792530       1.00943049
H        1.33168366      -0.79606698      -0.72458675
