9
Properties=species:S:1:pos:R:3 -97079.0653391493=T pbc="F F F"
C       -0.02074112       0.46931156      -0.02843502
C       -1.36228096      -0.21926575       0.03865959
O        1.26450167      -0.24952614      -0.04350273
H        0.01056073       1.11709973      -0.88242856
H        0.05053547       1.31673267       0.79985905
H       -2.15110567       0.51005150       0.16922304
H       -1.39866222      -0.69865844      -1.01860298
H       -1.54150386      -1.14877681       0.58680084
H        1.42902339      -0.11354052       0.91382634
