9
Properties=species:S:1:pos:R:3 -97083.81183643879=T pbc="F F F"
C        0.01625765      -0.58131651      -0.05206129
C       -1.32271192       0.24404725       0.02269970
O        1.20952706       0.26042085       0.03290177
H        0.22757905      -1.14458251       0.88286507
H        0.04594641      -1.38899022      -0.71065186
H       -2.23492281      -0.33948523       0.11593449
H       -1.12370194       0.86781627       0.89760065
H       -1.43183953       0.93448675      -0.87772210
H        0.87659379       0.95349437      -0.48059786
