9
Properties=species:S:1:pos:R:3 -97083.84424130691=T pbc="F F F"
C        0.02568042      -0.47889082       0.03026365
C       -1.39134467       0.22656381      -0.00188999
O        1.25060330       0.26265883       0.05108777
H        0.11225142      -1.27828471       0.67679192
H       -0.02556977      -0.97386283      -0.97517724
H       -2.12343146      -0.56075161       0.38802850
H       -1.55130192       1.11799142       0.57433381
H       -1.69662656       0.45730546      -1.07135705
H        1.69742664       0.07343049      -0.74126036
