9
Properties=species:S:1:pos:R:3 -97086.29093297983=T pbc="F F F"
C       -0.04635972      -0.58806168       0.00171458
C       -1.28420900       0.25946327      -0.00005394
O        1.20533914       0.26093332       0.05507335
H        0.12975224      -1.12403483       0.93662505
H        0.09875960      -1.17185977      -0.94136681
H       -2.13444954      -0.37676529      -0.11574042
H       -1.39204491       0.99155121       0.91146231
H       -1.14512068       0.95184156      -0.82034980
H        1.15635023       0.50063091      -0.86445719
