9
Properties=species:S:1:pos:R:3 -97082.09234331423=T pbc="F F F"
C        0.01389460       0.66536854      -0.00890576
C       -1.19407710      -0.26330976      -0.00244596
O        1.08387696      -0.31255170       0.05221481
H        0.17782002       1.43774797      -0.82890092
H        0.13779157       1.27185412       0.88836349
H       -2.16224330       0.18338847      -0.44630800
H       -1.02965017      -1.23080915      -0.51015424
H       -1.52371158      -0.75081984       0.95573343
H        1.25031033      -0.73818434      -0.75225782
