9
Properties=species:S:1:pos:R:3 -97088.29355932165=T pbc="F F F"
C        0.03321201      -0.55902290      -0.03034073
C       -1.22836345       0.22204955       0.04725971
O        1.12438608       0.25172290       0.04692060
H        0.17207049      -1.35226980       0.75846882
H       -0.07266376      -1.13852783      -0.96983301
H       -1.02977281       1.06325903      -0.69877866
H       -2.17490110      -0.17019914      -0.37215953
H       -1.37889851       0.69072505       0.95898227
H        0.86980605       0.92427147      -0.62279522
