9
Properties=species:S:1:pos:R:3 -97085.63177940184=T pbc="F F F"
C        0.00423459       0.57401549       0.00210317
C       -1.28517825      -0.24736148       0.00120766
O        1.14649747      -0.28405534       0.04608365
H        0.02465693       1.31898918      -0.89988429
H        0.28488194       1.17496878       0.92198990
H       -1.47567995      -0.66733157      -1.05607604
H       -1.08995683      -0.99648950       0.79199873
H       -2.18879958       0.20769988       0.26070052
H        1.50112736      -0.41908589      -0.78953118
