9
Properties=species:S:1:pos:R:3 -97081.80538930895=T pbc="F F F"
C        0.06789535      -0.52024006      -0.01525067
C       -1.37122212       0.21103332      -0.01747068
O        1.18981153       0.26965511       0.05462206
H        0.10085040      -1.06343327       0.97280948
H        0.05106746      -1.19732401      -0.88684150
H       -1.48072508       0.95037965       0.85674018
H       -1.65549373       0.74674746      -1.02264135
H       -2.18374113      -0.41331298       0.26710747
H        1.80335829       0.37899244      -0.66445847
