9
Properties=species:S:1:pos:R:3 -97080.7841944401=T pbc="F F F"
C       -0.02926847      -0.50461608      -0.01890605
C       -1.28484732       0.25874585       0.00653445
O        1.19093173       0.20138339       0.04865962
H        0.06206518      -1.36001762       0.66431787
H       -0.10674359      -1.13078115      -0.89657880
H       -2.03325511      -0.42380938      -0.13667868
H       -1.23492328       0.74342358       1.02393509
H       -1.25112226       0.97462300      -0.66378484
H        1.30997988       0.92799577      -0.61616764
