9
Properties=species:S:1:pos:R:3 -97086.63014393781=T pbc="F F F"
C       -0.02662510      -0.61814218       0.01536624
C       -1.19491557       0.30038882      -0.02075012
O        1.11229997       0.30734639       0.06288522
H       -0.04728493      -1.26715708       0.88317429
H        0.03483776      -1.23784727      -0.98877285
H       -1.16876498       0.99143355      -0.87417033
H       -2.07221811      -0.34989797      -0.07412404
H       -1.40035574       0.71947198       0.91145046
H        1.54545365       0.04962147      -0.79148667
