9
Properties=species:S:1:pos:R:3 -97090.5482600559=T pbc="F F F"
C        0.01336323      -0.51242292      -0.00278233
C       -1.30056473       0.23180560      -0.02926077
O        1.17275188       0.26753486       0.06125181
H       -0.02969505      -1.11881409       0.94787423
H        0.17701856      -1.19980048      -0.88428829
H       -1.35682031       0.96324089       0.78096994
H       -1.65896954       0.79424758      -0.84286021
H       -2.07728330      -0.55276512       0.20433452
H        1.65981400       0.20918120      -0.79660901
