9
Properties=species:S:1:pos:R:3 -97089.06773545952=T pbc="F F F"
C        0.00464342      -0.53766271      -0.03771989
C       -1.33691974       0.24908816       0.02412726
O        1.20811439       0.24052229       0.04867226
H        0.27475643      -1.21300792       0.84681775
H        0.07554846      -1.19315981      -0.88712758
H       -2.15917904      -0.54096429      -0.02586028
H       -1.22485970       0.81180378       0.93906107
H       -1.57071626       0.92047070      -0.80333054
H        1.29398394       0.83360205      -0.68017941
