9
Properties=species:S:1:pos:R:3 -97087.05379641804=T pbc="F F F"
C        0.00054568       0.53127637      -0.01532650
C       -1.28238450      -0.23420804       0.01679380
O        1.16221753      -0.28731287      -0.02316513
H       -0.06554394       1.10970727      -0.92788604
H       -0.00084950       1.13527621       0.95106784
H       -2.20392146       0.43258189       0.05914396
H       -1.27888868      -0.78331237      -0.94690426
H       -1.42620225      -1.02756503       0.81846734
H        1.79280541       0.15603407       0.39628770
