9
Properties=species:S:1:pos:R:3 -97079.81554957115=T pbc="F F F"
C        0.08160251      -0.58719331      -0.06442239
C       -1.36075497       0.22180226      -0.00319436
O        1.17180202       0.27029427       0.08202245
H        0.09252117      -1.21996864       0.82968968
H        0.12021066      -1.00318073      -0.94852725
H       -2.24391660      -0.37667656       0.27700165
H       -1.20864096       0.86076759       0.85642761
H       -1.56089948       1.00673290      -0.78350753
H        1.43402588       0.79320788      -0.72773902
