9
Properties=species:S:1:pos:R:3 -97086.71950572028=T pbc="F F F"
C        0.00055187      -0.51801750      -0.02264039
C       -1.29315607       0.23536793      -0.01409009
O        1.23621865       0.21193077       0.00039960
H       -0.10249132      -1.11460024       0.91116198
H       -0.03211312      -1.37775665      -0.71370134
H       -2.06691626      -0.35502664       0.52104020
H       -1.32571720       1.08464461       0.58898608
H       -1.68075215       0.64393175      -0.96312338
H        0.97911980       1.12077214       0.08663799
