9
Properties=species:S:1:pos:R:3 -97082.08380195963=T pbc="F F F"
C       -0.00033972       0.52028353      -0.03734801
C       -1.31754262      -0.23210611      -0.00053337
O        1.22585976      -0.24956080       0.06319660
H        0.14456398       1.35799516      -0.76506476
H        0.01930507       1.06503713       0.99893821
H       -1.89980952      -0.02435205       0.95263119
H       -2.11384994      -0.01327205      -0.85709152
H       -1.21817682      -1.32639731      -0.00041236
H        1.30448258      -0.52957898      -0.88092954
