9
Properties=species:S:1:pos:R:3 -97085.98779507131=T pbc="F F F"
C        0.06721595      -0.58635906      -0.01939938
C       -1.25958654       0.24303651       0.03015482
O        1.08859614       0.33239263      -0.01785296
H        0.12482111      -1.34536372       0.76835229
H       -0.02617680      -1.15308304      -0.91264291
H       -2.25646566      -0.33644188      -0.36424453
H       -1.59514115       0.50199952       1.00766730
H       -1.23478421       1.15649624      -0.66752082
H        1.90828847      -0.01103651       0.32366487
