9
Properties=species:S:1:pos:R:3 -97077.97581377163=T pbc="F F F"
C        0.02770484      -0.63117286      -0.03560362
C       -1.32055314       0.25403231      -0.00880156
O        1.20730710       0.27807552       0.01045508
H       -0.01961860      -1.06913537       1.04610779
H        0.22878356      -1.52984721      -0.68912008
H       -2.12066183      -0.45285059       0.19222866
H       -1.23110469       1.03911676       0.71878460
H       -1.40400888       0.96489305      -0.84696962
H        0.77949380       1.12511107      -0.05823620
