9
Properties=species:S:1:pos:R:3 -97080.24241054515=T pbc="F F F"
C        0.00291201       0.46735063      -0.02983228
C       -1.35374711      -0.22530339       0.02885923
O        1.23511752      -0.21955060       0.06150922
H       -0.08834943       1.21791545      -0.81532146
H        0.11089760       1.13096625       0.83718808
H       -2.20959834       0.39961100      -0.12520542
H       -1.40094032      -0.85206957      -1.06016698
H       -1.46711325      -0.77101948       0.98928512
H        1.53705461      -0.52299140      -0.79038942
