9
Properties=species:S:1:pos:R:3 -97079.60796464956=T pbc="F F F"
C        0.01237721       0.52704099      -0.03841320
C       -1.34289926      -0.25083462       0.00464704
O        1.21227454      -0.26235788       0.07913320
H        0.17076961       0.96426488      -1.03172312
H       -0.08171720       1.28352243       0.84603197
H       -2.08324544       0.49797997      -0.20285907
H       -1.62021627      -1.15712881      -0.65475324
H       -1.29514948      -0.40648138       1.05692562
H        1.51218029      -0.30708901      -0.86747558
