9
Properties=species:S:1:pos:R:3 -97089.07356688374=T pbc="F F F"
C       -0.01928751      -0.53501962      -0.04016849
C       -1.29281742       0.25327137       0.02277931
O        1.20108331       0.22342764       0.06582943
H        0.14962117      -1.28837349       0.78387249
H       -0.19476872      -1.07171785      -0.98826338
H       -2.10308189      -0.48510812       0.07314396
H       -1.22697933       0.91448812       0.89273824
H       -1.28066343       1.00658553      -0.78957535
H        1.21681704       0.73289521      -0.80962675
