9
Properties=species:S:1:pos:R:3 -97081.74140716885=T pbc="F F F"
C        0.03897967       0.51021585      -0.01522817
C       -1.33957956      -0.23507989       0.02650581
O        1.21620746      -0.22390279       0.05076838
H        0.00104044       1.08841250      -1.07925551
H        0.12244617       1.33686709       0.76267430
H       -1.89858616      -0.12175421      -1.01756074
H       -1.20092480      -1.33097122       0.24305454
H       -2.11398418       0.22831241       0.73049506
H        1.27393359      -0.92336351      -0.57941948
