9
Properties=species:S:1:pos:R:3 -97086.79803422956=T pbc="F F F"
C       -0.07202734      -0.53469111      -0.01225708
C       -1.31988508       0.25735437      -0.00221023
O        1.28588002       0.19502697       0.01920168
H        0.04131909      -1.14643438       0.91552065
H        0.07781135      -1.05203255      -0.96628856
H       -2.15766966      -0.45235720       0.18125526
H       -1.42186414       1.00341204       0.82632672
H       -1.43292912       0.71340578      -0.93092067
H        1.05874623       1.14098780      -0.15837822
