9
Properties=species:S:1:pos:R:3 -97088.22675791492=T pbc="F F F"
C        0.04209610      -0.52765909      -0.00697178
C       -1.32930032       0.23289634      -0.01384859
O        1.15316633       0.31629062       0.00136812
H        0.07599812      -1.19383473       0.86386118
H       -0.06827316      -1.19671524      -0.94627004
H       -2.11601950      -0.51759853       0.39080699
H       -1.35881833       0.99841457       0.75876698
H       -1.43274646       0.69596833      -0.92498953
H        1.92479298      -0.29630646       0.08401589
