9
Properties=species:S:1:pos:R:3 -97084.28202470872=T pbc="F F F"
C       -0.03968602       0.49838936      -0.03265537
C       -1.24260839      -0.24335316       0.03790939
O        1.20910386      -0.19322396       0.05910509
H       -0.10703634       0.98356395      -1.10656409
H       -0.04844762       1.31314703       0.74930955
H       -2.14440274       0.42991641      -0.14235684
H       -1.32265762      -0.99965348      -0.84785571
H       -1.37169093      -0.79040386       1.01026787
H        1.07293942      -0.90663790      -0.66340015
