9
Properties=species:S:1:pos:R:3 -97090.87397069759=T pbc="F F F"
C        0.01867111      -0.63042353      -0.03373813
C       -1.24590647       0.25251169       0.00554428
O        1.13395285       0.27740031       0.04114616
H        0.12659852      -1.30470725       0.82372941
H        0.11376738      -1.36656869      -0.82885978
H       -2.27697751      -0.19355888      -0.06225446
H       -1.12135436       0.81765323       0.97598750
H       -1.15827702       1.10415794      -0.68629331
H        0.93206952       1.04021091      -0.53962945
