9
Properties=species:S:1:pos:R:3 -97095.38950894916=T pbc="F F F"
C       -0.02370942       0.60670528       0.00745078
C       -1.21353744      -0.27597269      -0.00366743
O        1.10362572      -0.32032446       0.01460079
H       -0.01220364       1.17326684      -0.89082430
H       -0.01526942       1.25213339       0.89196785
H       -2.06930501       0.29074732      -0.42442246
H       -1.11587850      -1.11627832      -0.64682909
H       -1.44594415      -0.61279632       1.02122642
H        1.87494621       0.15873239      -0.22789122
