9
Properties=species:S:1:pos:R:3 -97082.85226096731=T pbc="F F F"
C        0.01423312       0.58656457      -0.00835868
C       -1.28816667      -0.25709566       0.00786755
O        1.17612783      -0.26679680       0.05121446
H        0.08091096       1.17594640      -0.95650274
H        0.13539228       1.37797128       0.87173311
H       -1.92210925      -0.23825536       0.93743241
H       -1.94318565       0.12419660      -0.93306729
H       -1.01091699      -1.34043087       0.01896983
H        1.16241503      -0.78809898      -0.74552818
