9
Properties=species:S:1:pos:R:3 -97078.76680358022=T pbc="F F F"
C        0.02049765      -0.53090366      -0.05367099
C       -1.26525057       0.23051995       0.01317088
O        1.18231932       0.23196860       0.05438667
H       -0.01102754      -1.15988033       1.01157149
H        0.03428253      -1.22319288      -0.95708067
H       -1.29634593       0.95079357      -0.88160741
H       -2.04842769      -0.43019510       0.00452722
H       -1.44418694       0.80093531       0.99788845
H        0.82249973       0.95664677      -0.55622708
