9
Properties=species:S:1:pos:R:3 -97083.06462895627=T pbc="F F F"
C       -0.01755684       0.58688625      -0.04588879
C       -1.24125022      -0.25703188       0.01000045
O        1.11865630      -0.27809289       0.07139299
H        0.28007478       1.36136269      -0.74130242
H        0.03390826       1.26367878       0.88496996
H       -1.07495909      -0.91215201       0.82916599
H       -2.26266943       0.19540134       0.08136952
H       -1.22570497      -0.88910168      -1.00948423
H        1.48386318      -0.53317259      -0.75046105
