9
Properties=species:S:1:pos:R:3 -97087.1613261871=T pbc="F F F"
C       -0.02026139      -0.58794094      -0.00460798
C       -1.31009800       0.25720632      -0.00140263
O        1.23583583       0.23553307       0.00966315
H       -0.08043935      -1.24735649       0.83460899
H        0.14602992      -1.30063228      -0.86742849
H       -1.57191691       0.55888780       0.98071415
H       -1.13233902       1.16616055      -0.61071998
H       -2.23164682      -0.12532308      -0.38783165
H        1.09706208       1.14818310      -0.03113677
