9
Properties=species:S:1:pos:R:3 -97080.12615262839=T pbc="F F F"
C       -0.00709290       0.58755552       0.02888801
C       -1.36757047      -0.26566802      -0.00830568
O        1.22878417      -0.28567153       0.04473949
H        0.08168289       1.27548586      -0.85158258
H        0.08068298       0.99251882       0.96986919
H       -2.22675712       0.31672718      -0.50036363
H       -1.02711724      -1.12500761      -0.62057568
H       -1.47097961      -0.60143655       0.97718486
H        1.42867277      -0.15713256      -0.92965066
