9
Properties=species:S:1:pos:R:3 -97085.92481759054=T pbc="F F F"
C        0.01364895      -0.58393682       0.00865560
C       -1.28582180       0.27057029      -0.00946881
O        1.16405800       0.28618151       0.06026411
H       -0.08225050      -1.23120663       0.96458016
H        0.04159770      -1.15136677      -1.06426813
H       -2.09787485      -0.49358631       0.12123991
H       -1.23004489       1.00903369       0.77881026
H       -1.44921939       0.84092193      -0.91185787
H        1.49089099       0.21549748      -0.83525677
