9
Properties=species:S:1:pos:R:3 -97087.4922356793=T pbc="F F F"
C        0.00004365       0.61678159      -0.01149877
C       -1.24744557      -0.28226800       0.02461315
O        1.15414654      -0.27852190       0.05826199
H        0.05384515       1.30579581      -0.93648165
H        0.18914678       1.31824939       0.80943863
H       -2.18623571       0.36019144      -0.05012462
H       -1.24582453      -0.78743434      -1.02588229
H       -1.41810647      -0.93959534       0.91052259
H        1.14263260      -0.81985844      -0.78828354
