9
Properties=species:S:1:pos:R:3 -97088.78572422634=T pbc="F F F"
C       -0.06147112      -0.62542338      -0.01269529
C       -1.28420891       0.29588331      -0.00632809
O        1.21488758       0.27372585       0.05844315
H       -0.01215745      -1.18408449       0.84950866
H        0.00755696      -1.37051293      -0.78602066
H       -1.12461072       1.04953863       0.79964218
H       -1.45580064       0.82914798      -0.98422076
H       -2.21573057      -0.20705618       0.22769432
H        1.54237646       0.46251616      -0.80763090
