9
Properties=species:S:1:pos:R:3 -97091.78952028193=T pbc="F F F"
C        0.04563733       0.58371851       0.01370867
C       -1.27094791      -0.25798927      -0.03182890
O        1.09499330      -0.31216666       0.04459040
H        0.07505659       1.28681295      -0.83650985
H        0.00828082       1.19195906       0.89623504
H       -2.12191748       0.47539315      -0.07637885
H       -1.07736185      -0.96220695      -0.83758977
H       -1.41898544      -0.84319036       0.91805586
H        1.74615231      -0.07285872      -0.55573993
