9
Properties=species:S:1:pos:R:3 -97082.16411023197=T pbc="F F F"
C        0.07781843      -0.53943180       0.01236605
C       -1.37278351       0.22024759      -0.00876409
O        1.17957996       0.29931071       0.03222749
H       -0.00779438      -1.12237848       1.01367635
H        0.00402362      -1.13624216      -0.87912441
H       -1.77081113       0.40970466      -1.06120526
H       -2.25241288      -0.23525409       0.43785822
H       -1.08639757       1.16184568       0.52478141
H        1.81152970      -0.02748205      -0.59034788
