9
Properties=species:S:1:pos:R:3 -97090.70237938821=T pbc="F F F"
C        0.00757194       0.56703915      -0.00919572
C       -1.32133173      -0.25085954       0.00561457
O        1.16619085      -0.31141031       0.00373097
H        0.00952015       1.12959373      -0.92196018
H        0.10114635       1.28595789       0.83724373
H       -1.38231069      -0.77740476       0.95433891
H       -2.13395958       0.50901262      -0.04003638
H       -1.52533086      -1.01346809      -0.81476840
H        2.06535227       0.04391970      -0.03139080
