9
Properties=species:S:1:pos:R:3 -97087.40829433576=T pbc="F F F"
C        0.02123323      -0.56833728      -0.02705310
C       -1.28690563       0.25029798      -0.00266780
O        1.17706197       0.22693248       0.04979218
H       -0.07610242      -1.14541239       0.84193609
H       -0.03005502      -1.21203292      -0.89357620
H       -1.09329026       0.89829931      -0.89536079
H       -2.16278965      -0.30001063       0.03612101
H       -1.31368881       0.89196282       0.98078944
H        1.06524293       1.05245010      -0.50626590
