9
Properties=species:S:1:pos:R:3 -97081.41762843159=T pbc="F F F"
C        0.03731339      -0.54790030      -0.00458735
C       -1.32170425       0.22672200      -0.01222225
O        1.14015067       0.30760388       0.05839798
H        0.10689596      -1.31256303       0.89161429
H        0.24783207      -1.24211607      -0.83067273
H       -2.11342971       0.03396502       0.77899561
H       -0.89176786       1.25737241      -0.00297525
H       -1.94486382       0.12901600      -0.88581498
H        1.79333672       0.07664392      -0.67781623
