9
Properties=species:S:1:pos:R:3 -97086.20280916357=T pbc="F F F"
C       -0.01360844       0.52867082      -0.01587854
C       -1.29423613      -0.26150029       0.01298230
O        1.19939350      -0.21855881       0.05154479
H        0.03354799       1.18905198      -0.93698523
H        0.10217359       1.28166837       0.69467148
H       -2.12463170       0.22533968      -0.68861047
H       -0.99982127      -1.30497243      -0.28330921
H       -1.74432898      -0.20600962       1.03386597
H        1.27009626      -0.89754483      -0.60320067
