9
Properties=species:S:1:pos:R:3 -97076.30923152024=T pbc="F F F"
C       -0.01748057      -0.60922507      -0.00154934
C       -1.30909831       0.27634727      -0.01844079
O        1.20216177       0.32426853       0.04831385
H       -0.01247008      -1.22938397       0.96059151
H        0.06660068      -1.44812747      -0.73286694
H       -1.23607050       1.23959235       0.09598296
H       -1.87275804       0.20933892      -0.94967018
H       -1.91529780       0.02160582       0.82536747
H        1.68616347       0.02411645      -0.72816169
