9
Properties=species:S:1:pos:R:3 -97084.41499547836=T pbc="F F F"
C        0.02480492      -0.59525408      -0.02535879
C       -1.23746323       0.27338631      -0.00136317
O        1.12600150       0.27180883       0.05440492
H        0.00091797      -1.12368269       0.97054833
H        0.11659235      -1.41392280      -0.84670965
H       -2.20344425      -0.40019753       0.21660204
H       -1.17146974       0.99806630       0.82703963
H       -1.61345682       0.75313736      -0.99067476
H        1.43931428       0.70522044      -0.72207743
