9
Properties=species:S:1:pos:R:3 -97090.8819894067=T pbc="F F F"
C        0.02860398      -0.50801656      -0.02992235
C       -1.33992085       0.24271275       0.02698054
O        1.24055155       0.22581318       0.05321249
H        0.00784580      -1.15180326       0.88552499
H       -0.09854720      -1.20008634      -0.94476539
H       -1.53093495       0.83772709      -0.89893591
H       -2.14798994      -0.48656216      -0.04231305
H       -1.51555186       0.79964847       0.88240579
H        1.21035016       0.77618411      -0.69140970
