9
Properties=species:S:1:pos:R:3 -97085.83783111392=T pbc="F F F"
C        0.01789067      -0.53384831       0.00198201
C       -1.29520014       0.25120701      -0.02880205
O        1.15536608       0.28504059       0.02840922
H       -0.20450099      -1.14544343       0.97450610
H       -0.06628526      -1.28297366      -0.77487429
H       -2.07283720      -0.30733617       0.54200154
H       -1.20400117       1.20946241       0.57293712
H       -1.56633681       0.41369249      -1.08878188
H        1.98616832      -0.04584107      -0.35732199
