9
Properties=species:S:1:pos:R:3 -97081.68802862463=T pbc="F F F"
C       -0.01545749      -0.55748224      -0.02594224
C       -1.31498624       0.23917406       0.01679560
O        1.22941546       0.24144066       0.05024871
H        0.23268766      -1.40157820       0.73852584
H        0.09585261      -1.08607330      -1.02135692
H       -2.09973662      -0.11623655      -0.71380190
H       -1.74576305       0.15294614       0.99391542
H       -1.20053832       1.39621714      -0.07045222
H        1.04714776       1.01292730      -0.61540615
