9
Properties=species:S:1:pos:R:3 -97082.14077251946=T pbc="F F F"
C        0.01583945       0.60091960      -0.00241079
C       -1.24909175      -0.27177035      -0.00972390
O        1.15358064      -0.26613142       0.06904105
H       -0.08892788       1.21874320      -0.92091040
H       -0.12141958       1.34026323       0.79273467
H       -1.55918490      -0.65722645       0.97181692
H       -2.13568224       0.25930679      -0.43509409
H       -1.03563252      -1.25908573      -0.41777242
H        1.31680911      -0.59742603      -0.94202053
