9
Properties=species:S:1:pos:R:3 -97085.52940681127=T pbc="F F F"
C       -0.00746190      -0.62923631      -0.01012741
C       -1.22542104       0.24707952      -0.01399732
O        1.09909015       0.32640045       0.02697338
H       -0.04986328      -1.16260117       1.01587654
H        0.14344044      -1.15997484      -0.95572638
H       -2.25537764      -0.20730359       0.13504508
H       -1.13323137       0.95239832       0.79004823
H       -1.43509370       0.96646166      -0.86031086
H        1.96649333      -0.01891685      -0.26577063
