9
Properties=species:S:1:pos:R:3 -97087.49570960575=T pbc="F F F"
C        0.02608634      -0.48300116      -0.02572585
C       -1.39491281       0.21135066       0.00360333
O        1.23617064       0.21958809       0.05747059
H        0.24373452      -1.16160159       0.78355224
H        0.06599794      -1.09755504      -0.89222541
H       -1.55107674       0.62113732       1.02499666
H       -1.24078849       1.13358647      -0.58929945
H       -2.14806139      -0.50474510      -0.27322460
H        1.30965138       0.75865152      -0.70249035
