9
Properties=species:S:1:pos:R:3 -97085.00685774072=T pbc="F F F"
C        0.06067733      -0.54688224      -0.02578137
C       -1.40355486       0.22896846       0.03378470
O        1.25813804       0.24199917       0.04095978
H        0.14086253      -1.34070242       0.69120767
H       -0.07010916      -1.04950795      -0.96427169
H       -1.22158577       1.33584238      -0.23297735
H       -1.92717659      -0.13932505      -0.81132618
H       -1.92674395       0.10175946       0.95992932
H        1.02660189       1.03657599      -0.38791746
