9
Properties=species:S:1:pos:R:3 -97078.23717688741=T pbc="F F F"
C        0.05346022      -0.57420605      -0.02272966
C       -1.34051900       0.23642273       0.02712935
O        1.19402901       0.25351751       0.06509236
H        0.02449956      -1.35943574       0.80434287
H        0.06065982      -1.12134653      -0.99133782
H       -1.22746058       0.77756824      -1.04005816
H       -2.20208067      -0.39007207      -0.03728585
H       -1.52048980       1.10905835       0.84276581
H        1.23955329       0.98264897      -0.66387613
