9
Properties=species:S:1:pos:R:3 -97083.30505238802=T pbc="F F F"
C        0.00745264       0.51818485      -0.00649190
C       -1.28674372      -0.21637112      -0.00472498
O        1.18053697      -0.24463790       0.06038325
H        0.17241019       1.23146284      -0.86660188
H        0.14371670       1.17384579       0.81409889
H       -2.13127576       0.08271531       0.74716918
H       -1.66488845      -0.19113884      -1.09949240
H       -1.23429541      -1.28039263       0.36828865
H        1.21065400      -0.72755581      -0.78823097
