9
Properties=species:S:1:pos:R:3 -97085.2321163999=T pbc="F F F"
C       -0.00133084      -0.57682685      -0.03310639
C       -1.20616932       0.24578440      -0.01228307
O        1.07364723       0.31372700       0.02547662
H       -0.09398488      -1.31623681       0.88515664
H        0.11651572      -1.06668929      -0.97458832
H       -2.09902953      -0.35420826      -0.03779189
H       -1.32491799       0.64043671       1.01911645
H       -1.24738051       1.18238004      -0.72915201
H        1.98673412      -0.12309182      -0.02662890
