9
Properties=species:S:1:pos:R:3 -97081.16711205448=T pbc="F F F"
C        0.01540729       0.52818096      -0.03348050
C       -1.34094218      -0.24905818       0.00127661
O        1.21048313      -0.26431179       0.07695973
H        0.15396242       0.99638939      -1.01445070
H       -0.07692447       1.28092283       0.85573461
H       -2.09872346       0.49889318      -0.18725688
H       -1.60976608      -1.15240261      -0.66011600
H       -1.28897780      -0.45453844       1.05586761
H        1.49210047      -0.29791142      -0.88773916
