9
Properties=species:S:1:pos:R:3 -97077.37887414677=T pbc="F F F"
C        0.08805238      -0.53167044      -0.01431758
C       -1.43155732       0.21043306       0.00072923
O        1.27415736       0.24888416       0.04521847
H        0.13616562      -1.38502039       0.68075881
H        0.15437644      -1.04995305      -1.04131270
H       -1.37462359       1.25235734      -0.26224681
H       -2.19446127      -0.27204984      -0.53633488
H       -1.87558619       0.23134139       1.03997942
H        0.92921022       1.09827074      -0.43669962
