9
Properties=species:S:1:pos:R:3 -97079.84353629679=T pbc="F F F"
C       -0.01222460       0.49950686      -0.02328822
C       -1.31783914      -0.22275662      -0.01706119
O        1.23160218      -0.20032280       0.02910116
H        0.11242895       1.24600272      -0.95716930
H        0.07639650       0.98213598       0.94231259
H       -2.06691924       0.44989513       0.52541150
H       -1.89127140      -0.67930720      -0.81756312
H       -1.24261494      -1.05191577       0.66349073
H        1.30240079      -1.06276031      -0.33790541
