9
Properties=species:S:1:pos:R:3 -97087.62201422127=T pbc="F F F"
C        0.03097020       0.52202024      -0.00236064
C       -1.31295085      -0.23308119       0.02289398
O        1.18347314      -0.22356544       0.02470218
H        0.01705078       1.09472347      -0.92989388
H        0.24351554       1.32935480       0.61902230
H       -1.29341992      -1.01240127       0.72193763
H       -2.09037860       0.47558245       0.25384998
H       -1.49094653      -0.63989230      -1.02464074
H        1.09592518      -1.13956921      -0.27680375
