9
Properties=species:S:1:pos:R:3 -97076.03178667734=T pbc="F F F"
C        0.00702338      -0.48889770      -0.05860053
C       -1.39642954       0.23532895       0.01163634
O        1.30820174       0.18715918       0.05009846
H       -0.03450260      -1.36483491       0.76842448
H        0.03842208      -0.90264590      -0.99996160
H       -1.76952400       0.41309331       1.04912738
H       -1.38007941       1.16962522      -0.55281965
H       -2.34764187      -0.40459359      -0.26360800
H        1.27463589       1.13820349      -0.23706698
