9
Properties=species:S:1:pos:R:3 -97079.3975752387=T pbc="F F F"
C       -0.00262961       0.52281552      -0.02182421
C       -1.32026402      -0.25504884       0.02974220
O        1.23081327      -0.23568773       0.07826932
H       -0.16660722       0.97132431      -1.01613342
H        0.14067123       1.45292363       0.51024694
H       -1.95377120       0.08722309       0.90604178
H       -2.00618847      -0.01039557      -0.76295457
H       -1.17482555      -1.33322046      -0.10906582
H        1.37828918      -0.61557170      -0.86460384
