9
Properties=species:S:1:pos:R:3 -97083.35777494611=T pbc="F F F"
C        0.00882197       0.57692686      -0.00425538
C       -1.26187060      -0.26711558      -0.01066459
O        1.17916472      -0.22945836       0.02736444
H        0.09440430       1.18902494      -0.95082402
H       -0.02324655       1.12900760       0.92030099
H       -1.68230866      -0.24857197       0.98994836
H       -2.00794451       0.35655209      -0.65551281
H       -1.10876973      -1.34196383      -0.15262933
H        0.93350083      -1.13124795      -0.40792719
