9
Properties=species:S:1:pos:R:3 -97086.53530681654=T pbc="F F F"
C        0.01374455       0.55663898      -0.01979206
C       -1.24510221      -0.25971831       0.00546205
O        1.14219287      -0.24947294       0.06230232
H        0.24988846       1.17349590      -0.87573252
H       -0.02924266       1.21786144       0.79450323
H       -1.56077870      -0.65353183       1.02150079
H       -1.94102527       0.56811214      -0.35168863
H       -1.35657416      -1.03279352      -0.69494075
H        1.17186736      -0.84921115      -0.71180020
