9
Properties=species:S:1:pos:R:3 -97090.53306153651=T pbc="F F F"
C       -0.03486546      -0.57540214      -0.00455977
C       -1.28102468       0.27389896      -0.02664163
O        1.15668241       0.29581249       0.05390137
H        0.00865603      -1.30413280       0.91399711
H        0.15678053      -1.23674176      -0.87781798
H       -1.18458023       0.90185018      -0.86925633
H       -2.17950047      -0.32938638      -0.00342310
H       -1.34700698       0.79260289       0.92392732
H        1.85634042       0.07099581      -0.57137119
