9
Properties=species:S:1:pos:R:3 -97080.38237301885=T pbc="F F F"
C        0.08332201      -0.56650075      -0.04980561
C       -1.37224199       0.25358432       0.00523722
O        1.18562325       0.26139045       0.07387810
H        0.13834759      -1.31180008       0.76655354
H        0.03622733      -1.17877433      -0.91962277
H       -1.42766871       1.12905904      -0.63588355
H       -2.21106732      -0.49090032      -0.14686840
H       -1.52014828       0.53645181       0.99045067
H        1.51455743       0.89335006      -0.69646030
