9
Properties=species:S:1:pos:R:3 -97084.50199275285=T pbc="F F F"
C       -0.00637008      -0.60390352      -0.00161481
C       -1.30587386       0.28263236       0.00210769
O        1.17697009       0.30022100       0.06565320
H        0.20958707      -1.32135079       0.76869885
H       -0.00862558      -1.15902335      -0.89016267
H       -1.99453990      -0.43699809       0.48111293
H       -1.30089302       1.19613788       0.54505939
H       -1.44565554       0.50121970      -1.09397020
H        1.48542131       0.28061009      -0.85857089
