9
Properties=species:S:1:pos:R:3 -97087.09439135384=T pbc="F F F"
C       -0.05794295      -0.57636673       0.01461535
C       -1.25202562       0.27316019      -0.02598276
O        1.18023051       0.30127056       0.04008153
H       -0.17215104      -1.16187365       0.97256561
H        0.07835086      -1.25895662      -0.78664634
H       -2.05339155      -0.48540039       0.01690617
H       -1.46258381       1.07672031       0.77366730
H       -1.33686320       0.85257125      -0.93516290
H        1.81309539      -0.19421501      -0.54210292
