9
Properties=species:S:1:pos:R:3 -97079.97746924484=T pbc="F F F"
C       -0.08169844       0.55226135       0.00226653
C       -1.34455537      -0.26252277      -0.02352517
O        1.27565059      -0.28244977       0.04703086
H       -0.06696470       0.96997657      -0.93672346
H       -0.00309113       1.34851760       0.86455488
H       -2.19795635       0.43614659       0.03432821
H       -1.41217901      -1.01405468      -0.80562315
H       -1.43070075      -0.90173070       0.94435429
H        1.84755121       0.19395984      -0.59418159
