9
Properties=species:S:1:pos:R:3 -97090.7796799785=T pbc="F F F"
C        0.04874253       0.58907060      -0.01412080
C       -1.29592934      -0.26972187       0.00264801
O        1.15714450      -0.27204439       0.07151247
H        0.03252235       1.12628735      -1.01236140
H       -0.05912775       1.35917780       0.74297156
H       -1.33867166      -0.68892876       1.00648809
H       -2.14977456       0.45265522      -0.17206777
H       -1.28020711      -1.09631977      -0.69981746
H        1.28057544      -0.63776058      -0.86356329
