9
Properties=species:S:1:pos:R:3 -97087.11847742906=T pbc="F F F"
C        0.00040810      -0.60466392      -0.00680040
C       -1.23796674       0.26344982      -0.01290841
O        1.12981300       0.27484113       0.07438440
H       -0.12076760      -1.27168580       0.88872193
H        0.09888896      -1.12302446      -0.94719786
H       -2.11838577      -0.23868848      -0.47310696
H       -1.54225889       0.66045265       1.01553204
H       -0.92827759       1.25465307      -0.53957343
H        1.41524742       0.41914264      -0.89024066
