9
Properties=species:S:1:pos:R:3 -97091.17893883861=T pbc="F F F"
C        0.03199197      -0.54203119       0.00607339
C       -1.29565588       0.23759397      -0.01595537
O        1.10930706       0.31549457       0.01469497
H        0.10254156      -1.10082904       0.95208098
H        0.15280573      -1.24294396      -0.81863275
H       -1.29026043       1.03074119      -0.74039321
H       -1.96247174      -0.52667621      -0.32933838
H       -1.51838432       0.56935714       1.06106523
H        1.95649096      -0.11189500      -0.24033874
