9
Properties=species:S:1:pos:R:3 -97086.3341533143=T pbc="F F F"
C        0.02982033      -0.55267531      -0.02991494
C       -1.29686806       0.23958706      -0.00775640
O        1.17731885       0.25299133       0.06125349
H        0.00385774      -0.94837887       1.03724119
H        0.03922649      -1.29407385      -0.84604556
H       -1.41548600       0.99419972      -0.77798380
H       -2.12840665      -0.35624101      -0.16305313
H       -1.61324610       0.67892151       0.96380596
H        1.51567023       0.63830469      -0.73755580
