9
Properties=species:S:1:pos:R:3 -97082.77649658151=T pbc="F F F"
C        0.03834892      -0.59457412      -0.01363139
C       -1.25539399       0.27600472      -0.00746648
O        1.08322211       0.27455642       0.06105351
H        0.06080371      -1.13712724       0.91375225
H        0.17451194      -1.34888270      -0.82512272
H       -1.17114144       0.95419571       0.80459497
H       -1.22974278       0.62888229      -1.03923312
H       -2.15300497      -0.35120313       0.12649719
H        1.61819959       0.68987666      -0.69824336
