9
Properties=species:S:1:pos:R:3 -97086.69930035462=T pbc="F F F"
C       -0.00988078      -0.52277742      -0.00780973
C       -1.33076316       0.25547971       0.00685279
O        1.24700732       0.22699803       0.05894357
H        0.08444201      -1.24550165       0.75319996
H       -0.00997422      -1.12791712      -1.02229926
H       -1.58802641       0.67250347      -1.00811649
H       -2.17998370      -0.43597678       0.18366398
H       -1.40665688       0.92526085       0.95148168
H        1.27210591       0.79167575      -0.78201297
