9
Properties=species:S:1:pos:R:3 -97091.41185678974=T pbc="F F F"
C        0.01820162      -0.56916499      -0.00041966
C       -1.27726638       0.22829796       0.00109317
O        1.11400020       0.32401371       0.00412288
H        0.10285048      -1.30973232       0.86048510
H       -0.03025706      -1.24733869      -0.87504644
H       -1.37897897       0.71226520      -0.96310486
H       -2.18704344      -0.30131781       0.30957325
H       -1.14921208       1.22099981       0.63937865
H        1.95411786      -0.15856353      -0.04473812
