9
Properties=species:S:1:pos:R:3 -97083.93419151976=T pbc="F F F"
C       -0.02364278      -0.61809044      -0.00522557
C       -1.22034988       0.26187739      -0.02293294
O        1.17576427       0.25055002       0.00890227
H        0.12825353      -1.33171006       0.86473206
H       -0.08552803      -1.24713387      -0.94307561
H       -2.18278552      -0.15242821       0.38946881
H       -1.27340281       0.98756754       0.84988814
H       -1.31071027       0.82985576      -0.95444972
H        0.87594847       1.17880600      -0.01257058
