9
Properties=species:S:1:pos:R:3 -97087.41477218988=T pbc="F F F"
C       -0.00858885       0.55492751      -0.02678740
C       -1.32054818      -0.24644115       0.00262690
O        1.16306305      -0.32222060       0.00083557
H       -0.00806639       1.30857765      -0.82200407
H        0.11606546       1.20564966       0.86141124
H       -1.10234923      -1.04008812      -0.82923184
H       -1.32147534      -0.70849312       0.95259523
H       -2.19813723       0.33158024      -0.01256222
H        1.88111510       0.34355418       0.12420560
