9
Properties=species:S:1:pos:R:3 -97088.75762976604=T pbc="F F F"
C        0.00083708       0.61091936       0.00604930
C       -1.30019996      -0.25777004       0.01305028
O        1.18730598      -0.27337723       0.04819564
H       -0.01727938       1.24979067      -0.94709158
H        0.13332557       1.07639147       0.92889414
H       -2.07125708       0.22230226      -0.55792501
H       -1.09704844      -1.14422552      -0.53250641
H       -1.57026392      -0.64754332       0.96843527
H        1.25040687      -0.62290882      -0.85212150
