9
Properties=species:S:1:pos:R:3 -97084.73329308502=T pbc="F F F"
C        0.00426399      -0.56821714      -0.01794865
C       -1.38246911       0.25481430       0.01899459
O        1.28511672       0.24635973       0.01660714
H        0.23120891      -1.24472982       0.87385613
H        0.06277783      -1.15583466      -0.94608673
H       -2.04755314      -0.50286115      -0.29389250
H       -1.72005809       0.56746280       0.99786062
H       -1.41078146       1.05380332      -0.76321752
H        0.89872325       1.10388570      -0.14454113
