9
Properties=species:S:1:pos:R:3 -97086.0513256478=T pbc="F F F"
C       -0.07572885      -0.61934584       0.00103160
C       -1.26082039       0.29514957      -0.00939352
O        1.16529501       0.29932138       0.02402330
H        0.03679799      -1.23402853       0.95508299
H       -0.09973629      -1.13231122      -0.93470737
H       -1.12328185       0.93652945      -0.80155020
H       -2.21420308      -0.25747818      -0.03040400
H       -1.19763465       0.88853487       0.85510614
H        2.01804326      -0.09154450      -0.32523073
