9
Properties=species:S:1:pos:R:3 -97084.6799146261=T pbc="F F F"
C       -0.01762763      -0.46176702      -0.01485113
C       -1.31197166       0.21486397       0.00507931
O        1.23145842       0.19265656       0.04494002
H        0.05107367      -1.07156149       0.93608944
H        0.08735543      -1.12166697      -1.00733697
H       -1.49011810       0.69865388      -0.88372312
H       -2.17059599      -0.46115796       0.10690640
H       -1.37251451       0.97294221       0.83914827
H        1.18197169       0.86502331      -0.58796340
