9
Properties=species:S:1:pos:R:3 -97090.20132903096=T pbc="F F F"
C       -0.03967405       0.54725356      -0.04974601
C       -1.24191281      -0.28850955       0.01410239
O        1.18989927      -0.20673301       0.06087591
H       -0.08270999       1.08388115      -1.00858112
H       -0.05853788       1.35932362       0.78014105
H       -1.30899101      -0.84871578       0.94305715
H       -2.01932604       0.50691142       0.16134235
H       -1.33424454      -0.88316597      -0.88703333
H        1.17887981      -1.01805223      -0.53066845
