9
Properties=species:S:1:pos:R:3 -97084.5704643619=T pbc="F F F"
C       -0.05256537      -0.64028444      -0.00202358
C       -1.23302595       0.29021185      -0.02782081
O        1.15779709       0.30745047       0.05125676
H       -0.09632639      -1.28794646       0.90357789
H        0.00005845      -1.01360746      -1.01768515
H       -2.23164280      -0.22426921      -0.17414891
H       -1.33808485       0.63719767       1.01628895
H       -1.22087534       1.21815343      -0.61333718
H        1.81910645      -0.04073571      -0.57282550
