9
Properties=species:S:1:pos:R:3 -97081.4708701172=T pbc="F F F"
C       -0.00755646       0.55108818      -0.03856871
C       -1.30954803      -0.26463211       0.02853822
O        1.20658287      -0.27301253      -0.04383144
H        0.07954889       1.06175838      -0.94008271
H       -0.06149930       1.44687259       0.80799693
H       -1.22165250      -1.34964384      -0.30016824
H       -1.77955239      -0.10041315       1.01318097
H       -2.07081944       0.12441142      -0.67523976
H        1.58716641      -0.26086183       0.90938093
