9
Properties=species:S:1:pos:R:3 -97089.91401825045=T pbc="F F F"
C        0.00558578       0.61326746      -0.00998353
C       -1.22472195      -0.27489448      -0.00739915
O        1.11117606      -0.29045229       0.06812025
H        0.08347320       1.22719433      -0.87642686
H       -0.02353744       1.32031381       0.81527131
H       -2.12164615       0.33380866       0.07464577
H       -1.36205323      -0.85146087      -0.99620412
H       -1.31910494      -0.98640667       0.88043878
H        1.62374363      -0.46270970      -0.77187010
