9
Properties=species:S:1:pos:R:3 -97078.81876730759=T pbc="F F F"
C        0.00520701      -0.53432312      -0.01048910
C       -1.31050664       0.20187691      -0.00158503
O        1.14133030       0.30269406       0.00151049
H       -0.09127203      -1.22111273       0.78798136
H        0.15054913      -1.12595303      -0.88559804
H       -1.94457324       0.12560923      -0.78309093
H       -1.74429515       0.20431523       1.01934219
H       -0.99491571       1.32754212      -0.14691226
H        2.05274592      -0.15599515       0.12806956
