9
Properties=species:S:1:pos:R:3 -97083.56545647404=T pbc="F F F"
C       -0.00075106       0.59522210      -0.00231883
C       -1.31115297      -0.26652178       0.01218651
O        1.16579266      -0.32825132      -0.00161894
H       -0.00293496       1.23303156      -1.01887165
H        0.04436663       1.28563755       0.79764827
H       -1.18108012      -1.32705762       0.23189669
H       -2.00082797       0.30606783       0.71275697
H       -1.67718379      -0.35983542      -0.95761494
H        1.93630139       0.15796444       0.14238575
