9
Properties=species:S:1:pos:R:3 -97083.73648902132=T pbc="F F F"
C       -0.03262721       0.67600565       0.00030394
C       -1.27442929      -0.30500769      -0.00071762
O        1.14342044      -0.34858196       0.00879747
H       -0.04204056       1.33167118      -0.89764497
H        0.07298214       1.15324909       1.00646342
H       -0.93864797      -1.16541298       0.50800866
H       -2.08950928       0.22042903       0.47737163
H       -1.60986286      -0.59414485      -1.01263758
H        2.02306428       0.16904804      -0.21625787
