9
Properties=species:S:1:pos:R:3 -97085.2325589698=T pbc="F F F"
C        0.06711756      -0.66997713      -0.01909289
C       -1.27271290       0.27898023       0.00455156
O        1.15349862       0.29026059       0.02172656
H       -0.01348651      -1.27155058       0.93978326
H        0.00917246      -1.31413594      -0.91623314
H       -1.57241673       0.64014759       0.98299981
H       -1.07079632       1.06256207      -0.74316908
H       -2.13713869      -0.27365718      -0.27601748
H        0.83262298       1.20552097      -0.15903862
