9
Properties=species:S:1:pos:R:3 -97086.57612859266=T pbc="F F F"
C        0.02328873       0.54103842      -0.00861899
C       -1.25801867      -0.24969218      -0.01440361
O        1.13583445      -0.26806994       0.05890557
H       -0.05315464       1.31467450      -0.83646614
H       -0.02586004       1.26553166       0.84807195
H       -1.05119160      -1.27857323       0.54582947
H       -1.97908603       0.33367758       0.59902288
H       -1.62529644      -0.51374967      -0.99615382
H        1.40978965      -0.33610605      -0.82105229
