9
Properties=species:S:1:pos:R:3 -97084.88703194627=T pbc="F F F"
C       -0.00670100       0.57198221       0.00928528
C       -1.22870186      -0.26150876      -0.03862788
O        1.09571476      -0.29290066       0.04376429
H        0.05895428       1.28522048      -0.84975484
H       -0.16694802       1.16253778       0.92197514
H       -1.09695354      -1.24764206      -0.65732657
H       -1.32058497      -0.64447705       1.04295289
H       -2.04959270       0.39011078      -0.26786850
H        1.89506670       0.00604191      -0.53517172
