9
Properties=species:S:1:pos:R:3 -97083.51411571338=T pbc="F F F"
C       -0.02982458      -0.58446783      -0.02202163
C       -1.30351834       0.25768473       0.01373205
O        1.19951104       0.30918939      -0.01842187
H        0.00933949      -1.37649289       0.78767142
H       -0.06524688      -1.01189003      -0.97393962
H       -1.48766646       1.00307579      -0.69038682
H       -2.31092873      -0.24393555      -0.03588684
H       -1.31880332       0.73628415       0.97507559
H        2.01208093      -0.12315096       0.32853732
