9
Properties=species:S:1:pos:R:3 -97077.8252796485=T pbc="F F F"
C        0.01792769       0.54757979      -0.03400934
C       -1.37703051      -0.25966706      -0.00576173
O        1.25546936      -0.25443636       0.07671574
H       -0.04760771       0.97792707      -1.01593328
H       -0.01178313       1.18889980       0.93418117
H       -2.25727977       0.48250265       0.29215713
H       -1.45303817      -0.72740070      -1.04089030
H       -1.49350579      -0.92333867       0.87509890
H        1.52060920      -0.38862797      -0.78860076
