9
Properties=species:S:1:pos:R:3 -97084.51076864594=T pbc="F F F"
C        0.00477196       0.52909919      -0.01029834
C       -1.30737652      -0.23007188      -0.02436455
O        1.16076750      -0.25919553       0.06232223
H        0.12020794       1.43053130      -0.80828401
H        0.01049518       1.08393193       0.91047884
H       -1.14674003      -1.17106005       0.55309108
H       -2.08552951       0.24758905       0.53505436
H       -1.54702122      -0.59559412      -1.02896947
H        1.73625447      -0.44224400      -0.73774464
