9
Properties=species:S:1:pos:R:3 -97084.80955599784=T pbc="F F F"
C        0.00696220       0.50298302      -0.00034531
C       -1.34838456      -0.23111160       0.00929030
O        1.19334065      -0.30403960       0.00371782
H       -0.00108388       1.15142221      -0.90030328
H        0.17140739       1.09040382       0.99769063
H       -2.01036668       0.49256268      -0.47701316
H       -1.45427860      -1.07611587      -0.60641355
H       -1.65163760      -0.38130700       0.97997353
H        1.97886364       0.31123685      -0.15944512
