9
Properties=species:S:1:pos:R:3 -97082.48734294332=T pbc="F F F"
C        0.02597104       0.62748027      -0.03225968
C       -1.34371321      -0.27487627       0.01371632
O        1.22734433      -0.27452433       0.06734598
H        0.01185364       1.18399002      -1.06105767
H        0.08310192       1.35242823       0.83629192
H       -1.50928831      -0.75998615       1.03026647
H       -2.23726336       0.37828362      -0.11998052
H       -1.38835968      -1.07066685      -0.78272319
H        1.25124087      -0.92554391      -0.75083386
