9
Properties=species:S:1:pos:R:3 -97078.65975638501=T pbc="F F F"
C        0.03444125      -0.55875095      -0.01613014
C       -1.37258899       0.25466340       0.01367580
O        1.26814817       0.22454085       0.01747559
H       -0.13284477      -1.44737912       0.86049960
H       -0.03172877      -0.96457363      -1.07097866
H       -2.16305075      -0.46131565      -0.27774099
H       -1.54474381       0.70265071       1.02123729
H       -1.37726267       1.07517231      -0.72348079
H        1.05629491       1.15253753      -0.05766336
