9
Properties=species:S:1:pos:R:3 -97089.85135178428=T pbc="F F F"
C       -0.02178138       0.63962811       0.01023034
C       -1.24187288      -0.27890411      -0.03808718
O        1.12282010      -0.33738393       0.03013708
H        0.16691544       1.34546714      -0.79072786
H       -0.05082246       1.11136679       0.96737472
H       -1.19160964      -1.13655805       0.74269898
H       -2.12749219       0.33175401       0.35065299
H       -1.44003850      -0.70862033      -1.01609976
H        1.86919225       0.11603943      -0.40050979
