9
Properties=species:S:1:pos:R:3 -97086.22855968129=T pbc="F F F"
C       -0.02946185       0.55660242       0.01776330
C       -1.23443247      -0.24634778      -0.03157086
O        1.13171420      -0.29438256       0.03823061
H        0.06820521       1.43117861      -0.78007164
H       -0.01200885       1.03724347       1.03571858
H       -1.30740892      -1.09321568       0.71036750
H       -2.12934527       0.39412587       0.12941661
H       -1.38233070      -0.82006617      -0.91909734
H        1.85073606       0.02864995      -0.61867695
