9
Properties=species:S:1:pos:R:3 -97083.67174769993=T pbc="F F F"
C        0.04077606      -0.54290592      -0.00150569
C       -1.34228678       0.22537442      -0.02115691
O        1.17453017       0.31383001       0.03245311
H       -0.14209674      -1.13279477       0.97695371
H        0.19997200      -1.32614101      -0.69539600
H       -1.69135751       0.37705092      -1.07119155
H       -2.14447507      -0.30907057       0.48926922
H       -1.35156056       1.27957359       0.46041069
H        1.98573696      -0.08853492      -0.40526072
