9
Properties=species:S:1:pos:R:3 -97081.53877049823=T pbc="F F F"
C       -0.04092835       0.61103800      -0.01746945
C       -1.24479062      -0.29856656       0.02624041
O        1.15062140      -0.24227171       0.05540205
H        0.05224885       1.10998464      -0.99348119
H        0.12648024       1.21101336       0.89261097
H       -2.12933244       0.28741777      -0.09467841
H       -1.18494391      -0.69571221      -1.01410272
H       -1.27042484      -0.90768949       0.88984979
H        1.45361109      -0.88053008      -0.66390347
