9
Properties=species:S:1:pos:R:3 -97087.4711926176=T pbc="F F F"
C       -0.04377014       0.65550931       0.00116631
C       -1.15735138      -0.28361042       0.00668347
O        1.04549345      -0.34861264       0.00424453
H        0.00518876       1.23984206      -0.93768407
H        0.11260594       1.37807027       0.88705647
H       -0.77952271      -1.13965992       0.48480680
H       -2.10679139      -0.03436207       0.49029301
H       -1.37149115      -0.53494746      -1.03861048
H        1.84881911       0.19565646      -0.04669152
