9
Properties=species:S:1:pos:R:3 -97084.14692359643=T pbc="F F F"
C        0.00494992       0.65180621      -0.00539626
C       -1.24928959      -0.27965905       0.03335994
O        1.11931749      -0.27269342       0.03869146
H        0.13538959       1.26113064      -0.95920728
H        0.14514172       1.27406692       0.86148400
H       -1.07429886      -1.05914759       0.84103268
H       -2.15302590       0.24398605      -0.14016204
H       -1.09821945      -0.76419211      -0.96400250
H        1.09677135      -1.05909394      -0.58616515
