9
Properties=species:S:1:pos:R:3 -97085.54800337926=T pbc="F F F"
C       -0.01874145      -0.54721081      -0.02904892
C       -1.32999974       0.23639793       0.01193199
O        1.23784430       0.23778004       0.05861549
H        0.03855177      -1.19800579       0.76249792
H        0.14596707      -1.17580162      -0.91063119
H       -1.72047914       0.90618135      -0.83282529
H       -2.08059321      -0.43374163       0.15652137
H       -1.21846734       0.99651237       0.84916188
H        1.24876379       0.83190927      -0.75118685
