9
Properties=species:S:1:pos:R:3 -97081.41905624425=T pbc="F F F"
C       -0.04416427       0.51332733      -0.03812379
C       -1.36127162      -0.23386164       0.00298145
O        1.26658729      -0.21357143       0.07318764
H        0.01076647       1.14304956      -0.93421109
H        0.10702696       1.03839296       0.90374444
H       -2.09434354       0.40387682       0.48348364
H       -1.58732300      -0.62809551      -0.98141223
H       -1.23311725      -1.20456528       0.66392885
H        1.42961526      -0.69067504      -0.87864081
