9
Properties=species:S:1:pos:R:3 -97089.26587433094=T pbc="F F F"
C       -0.02839198      -0.51481755      -0.01851791
C       -1.29699396       0.23529465       0.01914134
O        1.22620523       0.22721755       0.04544650
H        0.08760976      -1.29035116       0.79951709
H        0.11852926      -1.25009960      -0.91571411
H       -2.15279730      -0.34434915      -0.23533698
H       -1.43663213       0.75323802       0.98521188
H       -1.33866502       0.96275384      -0.74431286
H        1.04233192       0.89093188      -0.61805693
