9
Properties=species:S:1:pos:R:3 -97089.74410357542=T pbc="F F F"
C        0.03987347       0.50913380      -0.00042094
C       -1.33402480      -0.23945435      -0.02921646
O        1.17037817      -0.27093734       0.06015798
H        0.13324218       1.25744465      -0.85418663
H       -0.05847715       1.17578764       0.88641736
H       -2.20073537       0.49167499      -0.24375959
H       -1.26876789      -1.13511356      -0.66877237
H       -1.49970355      -0.53959691       1.01653305
H        1.72892903      -0.16125161      -0.73809523
