9
Properties=species:S:1:pos:R:3 -97090.93496714205=T pbc="F F F"
C       -0.00278435      -0.57367240       0.00077475
C       -1.21651353       0.24121165      -0.03353692
O        1.06753065       0.32013033       0.02825883
H        0.04722141      -1.14706600       0.95264780
H        0.25705314      -1.31414159      -0.78247422
H       -2.10861305      -0.31177502       0.28583332
H       -1.08641640       0.99911859       0.78578154
H       -1.32844199       0.73596934      -0.95463371
H        1.79468187      -0.08425274      -0.34554927
