9
Properties=species:S:1:pos:R:3 -97076.70795670558=T pbc="F F F"
C        0.04953043      -0.57141746      -0.03366007
C       -1.38009807       0.20747976       0.01095267
O        1.21958137       0.26344553       0.04748935
H        0.33949252      -1.29517761       0.76743963
H        0.04291720      -1.07618792      -0.99568155
H       -2.31146674      -0.28162612      -0.15692238
H       -1.32322085       0.65703552       1.12087696
H       -1.27049465       1.23573832      -0.62025456
H        1.00997213       0.91248989      -0.59877531
