9
Properties=species:S:1:pos:R:3 -97086.21932288534=T pbc="F F F"
C       -0.01717920      -0.45742478      -0.01945081
C       -1.32092298       0.21755384       0.02496061
O        1.23691244       0.21244764       0.05529840
H        0.11359291      -1.22948726       0.78920083
H       -0.00763446      -1.24642255      -0.90143392
H       -2.09556915      -0.30406709      -0.57820840
H       -1.66295609       0.41822293       1.01541833
H       -1.35142566       1.15333904      -0.50410003
H        1.30584774       0.69281894      -0.76410675
