9
Properties=species:S:1:pos:R:3 -97086.26279515376=T pbc="F F F"
C        0.04686263       0.57468644      -0.03313665
C       -1.22189836      -0.23681660       0.03978071
O        1.10354212      -0.26404473       0.05522504
H        0.15518419       1.21562922      -0.89135136
H        0.07297746       1.38824766       0.79800376
H       -2.10997576       0.37036189      -0.06050617
H       -1.20790878      -0.75624882      -0.95909254
H       -1.37626397      -1.02179851       0.74354688
H        0.94292177      -1.02856813      -0.58617175
