9
Properties=species:S:1:pos:R:3 -97085.67123225532=T pbc="F F F"
C       -0.00852848      -0.56675346      -0.00977259
C       -1.30287994       0.25708370       0.01583644
O        1.24679010       0.23093421       0.01228223
H        0.03476589      -1.20197550       0.83971298
H       -0.01638534      -1.26102167      -0.82427260
H       -2.23422855      -0.25768019       0.09112313
H       -1.41769124       0.92464158       0.79348240
H       -1.62312137       0.68465964      -0.94293832
H        1.08391225       1.13346748      -0.22423667
