9
Properties=species:S:1:pos:R:3 -97083.72669392102=T pbc="F F F"
C        0.05070988       0.56840109      -0.01368916
C       -1.35617748      -0.23070281      -0.00888884
O        1.16151588      -0.27780526       0.06970190
H        0.20701541       1.25878636      -0.80521984
H        0.00916012       1.17661665       0.86856116
H       -2.31012821       0.22078955       0.27091690
H       -1.24311891      -0.64275401      -1.06057927
H       -1.10923132      -1.13363822       0.66824854
H        1.55618205      -0.49174474      -0.77931475
