9
Properties=species:S:1:pos:R:3 -97083.79991907469=T pbc="F F F"
C       -0.05147898       0.62206730      -0.01480966
C       -1.25970534      -0.30474560      -0.01406753
O        1.15720722      -0.29174452       0.05986915
H        0.05199317       1.13267594      -0.97433609
H       -0.10750962       1.31554376       0.97115371
H       -2.09686477       0.34064442       0.29181422
H       -1.30620446      -0.73809503      -1.07552003
H       -1.16706872      -1.06792165       0.75533577
H        1.87198300      -0.13094521      -0.57477867
