9
Properties=species:S:1:pos:R:3 -97087.3630363827=T pbc="F F F"
C        0.02071011       0.62752362       0.00746512
C       -1.25553746      -0.25288768      -0.00723837
O        1.06935519      -0.33963007       0.04388488
H        0.23928002       1.20468988      -0.89999006
H        0.18528920       1.42768334       0.85899740
H       -0.93204619      -1.01254510      -0.70530479
H       -1.36393235      -0.75527897       0.92618545
H       -2.22279476       0.20166619      -0.34879988
H        1.82563879      -0.13676565      -0.53027286
