9
Properties=species:S:1:pos:R:3 -97079.12948383107=T pbc="F F F"
C        0.04060850       0.59561831       0.01196878
C       -1.37242319      -0.25176878      -0.01080796
O        1.18651397      -0.31219305       0.04405337
H        0.05521717       1.30391054      -0.86819073
H        0.09294809       1.09364857       1.04342119
H       -1.33679719      -1.10679589       0.54203561
H       -2.30545021       0.25589778       0.22592040
H       -1.40319251      -0.52099777      -1.01315982
H        1.92412644      -0.16509037      -0.64300726
