9
Properties=species:S:1:pos:R:3 -97084.84976926418=T pbc="F F F"
C       -0.00434436      -0.53513396      -0.00924765
C       -1.21994110       0.25516475      -0.02246528
O        1.11745517       0.27561986       0.04658370
H       -0.06509415      -1.08428901       0.96620282
H        0.03240218      -1.28531069      -0.77029449
H       -2.03015629      -0.39915165       0.41417071
H       -1.23956900       1.03650694       0.65845505
H       -1.71560719       0.57333909      -1.01368541
H        1.86055718       0.11816349      -0.61656539
