9
Properties=species:S:1:pos:R:3 -97089.44241181627=T pbc="F F F"
C        0.01019570       0.62883450      -0.00763213
C       -1.22105623      -0.30038047      -0.00526283
O        1.08746216      -0.33615415       0.00820801
H       -0.06869349       1.32762466      -0.88474387
H       -0.09323458       1.23696288       0.91119317
H       -1.45865517      -0.56750908       0.95549157
H       -2.09108150       0.33154628      -0.25353751
H       -0.99282346      -1.09077846      -0.69477597
H        1.86318366       0.18631830      -0.01035643
