9
Properties=species:S:1:pos:R:3 -97087.01629630031=T pbc="F F F"
C       -0.07681151      -0.52648930      -0.00290793
C       -1.28667666       0.27801819       0.00675829
O        1.26424269       0.22275907       0.05586027
H       -0.10650355      -1.15134767       0.91159576
H       -0.22829855      -1.10321383      -0.91660862
H       -1.44653313       0.68615155      -0.97834236
H       -2.16028786      -0.39548008       0.10667766
H       -1.39531398       1.04000766       0.76926139
H        1.50730825       0.34703731      -0.82497244
