9
Properties=species:S:1:pos:R:3 -97081.2826191077=T pbc="F F F"
C       -0.03832641       0.58734138      -0.00572410
C       -1.23513969      -0.24078956       0.00328178
O        1.16464629      -0.22965966       0.03582375
H       -0.05493023       1.25167521      -1.01787496
H        0.07258154       1.26222940       0.82117885
H       -2.17336231       0.03395133       0.30056359
H       -1.32743669      -0.82643757      -0.88553845
H       -0.99250220      -1.15009635       0.71437280
H        1.15481077      -1.05278974      -0.47217031
