9
Properties=species:S:1:pos:R:3 -97089.87049310454=T pbc="F F F"
C       -0.01840068       0.61737709      -0.02691555
C       -1.19181812      -0.26422931       0.02469576
O        1.12202471      -0.26350573       0.05216596
H        0.07798033       1.19040608      -0.91728133
H        0.11682585       1.36373482       0.82422705
H       -2.14563126       0.28625680      -0.29000780
H       -1.14706844      -1.07306001      -0.74099558
H       -1.40204009      -0.87153573       0.97304730
H        1.10245507      -0.91864481      -0.65047069
