9
Properties=species:S:1:pos:R:3 -97083.55210012442=T pbc="F F F"
C        0.05738345       0.57592976       0.01004684
C       -1.29185664      -0.22830507       0.00773662
O        1.11548724      -0.34541246       0.01502568
H        0.00237715       1.37935642      -0.84022375
H        0.12947306       1.23939071       0.93046162
H       -2.26371657       0.35526179       0.20553186
H       -1.51865097      -0.72696848      -1.08727636
H       -1.22303153      -1.11132473       0.67796056
H        1.86861765       0.20712304      -0.33666686
