9
Properties=species:S:1:pos:R:3 -97089.4874632254=T pbc="F F F"
C        0.00660682       0.57120050      -0.03115841
C       -1.30715921      -0.25687822      -0.02701006
O        1.18226967      -0.27272746       0.05992520
H        0.13399599       1.33753312      -0.75917754
H        0.02772594       1.04770955       0.95775574
H       -1.08444545      -1.04544145       0.73802885
H       -1.95313714       0.35354081       0.55950289
H       -1.82127346      -0.61552501      -0.89985923
H        1.41911095      -0.49201583      -0.85470520
