9
Properties=species:S:1:pos:R:3 -97088.2310964308=T pbc="F F F"
C        0.00124521      -0.53125546       0.01444521
C       -1.34151629       0.26814719      -0.01995744
O        1.22823298       0.28567977       0.04591372
H       -0.08610183      -1.21742254       0.93598148
H       -0.06145297      -1.35157286      -0.77846960
H       -1.46153879       0.76913176      -0.98057590
H       -2.13918877      -0.55607338       0.07180614
H       -1.49478442       0.98718715       0.81525358
H        1.70849608      -0.03241040      -0.72704651
