9
Properties=species:S:1:pos:R:3 -97091.00797169241=T pbc="F F F"
C       -0.01066514       0.54058776      -0.00233136
C       -1.31751441      -0.25655135       0.00745540
O        1.20962527      -0.25268968       0.05318620
H        0.06384400       1.24343661      -0.91475694
H        0.06597024       1.07782171       1.00536012
H       -2.12086231       0.47335880       0.17437895
H       -1.55104307      -0.61590575      -1.05986006
H       -1.31130398      -1.10460618       0.72777919
H        1.47017076      -0.44570946      -0.83801588
