9
Properties=species:S:1:pos:R:3 -97080.09112587014=T pbc="F F F"
C       -0.10939476      -0.52949764      -0.03902680
C       -1.30491045       0.27946799       0.01321484
O        1.26257346       0.20785073       0.08214247
H       -0.11392378      -1.20817348       0.81316509
H        0.08105549      -1.13782267      -0.94855667
H       -1.26684260       1.03597426      -0.89769994
H       -2.06640332      -0.45425791      -0.05679195
H       -1.40106407       0.82408647       0.91690262
H        1.56911116       0.61851169      -0.82334102
