9
Properties=species:S:1:pos:R:3 -97085.68234461168=T pbc="F F F"
C        0.08622935       0.61479678       0.00612006
C       -1.27602350      -0.22072233       0.01882289
O        1.11945619      -0.27346914       0.00425780
H        0.12607275       1.21837736      -0.89849952
H        0.07246221       1.26876570       0.90286430
H       -2.17907987       0.32301524      -0.37321003
H       -1.05540321      -1.01408189      -0.74988627
H       -1.45489289      -0.92749887       0.86310398
H        0.89093397      -1.22060092      -0.10893821
