9
Properties=species:S:1:pos:R:3 -97075.88094542694=T pbc="F F F"
C       -0.10575435       0.51914198       0.00875938
C       -1.26742728      -0.29365493      -0.03733423
O        1.24817976      -0.26223864       0.05642744
H        0.00176441       1.16426047      -0.85300583
H       -0.20704065       1.24457972       0.87348359
H       -2.03018390       0.52822766      -0.22129718
H       -1.39135393      -1.10048057      -0.65853033
H       -1.64808304      -0.53889077       0.98316154
H        1.81561692       0.17938539      -0.67912026
