9
Properties=species:S:1:pos:R:3 -97076.544764725=T pbc="F F F"
C       -0.03344659      -0.58034880      -0.02529620
C       -1.30112197       0.27698226       0.00237059
O        1.21704278       0.26013581       0.07257923
H        0.19489474      -1.37025781       0.82533311
H        0.17317509      -1.10956385      -1.04516528
H       -1.65410073       0.50965275       1.05474591
H       -1.18227939       1.28198173      -0.51814519
H       -2.13095624      -0.49964135      -0.35735009
H        1.17439359       0.67141781      -0.83833214
