9
Properties=species:S:1:pos:R:3 -97088.33348504476=T pbc="F F F"
C        0.00468038       0.60550372      -0.01731604
C       -1.21172115      -0.26541348       0.03068457
O        1.15128058      -0.25676381       0.03929638
H       -0.04555730       1.24316150      -0.90473592
H        0.02263165       1.31109309       0.81622653
H       -1.17420727      -1.02317487       0.84200890
H       -2.23003443       0.16734258       0.08929514
H       -1.29878232      -0.66322370      -1.03387563
H        0.82631892      -1.00956674      -0.59175780
