9
Properties=species:S:1:pos:R:3 -97084.14535108909=T pbc="F F F"
C       -0.02008003       0.55272999      -0.00474910
C       -1.36298943      -0.24818111      -0.00860969
O        1.21830129      -0.30357632       0.01040658
H        0.04439036       1.27350049      -0.88488071
H       -0.04812088       1.22862674       0.89944423
H       -2.21169710       0.48672886       0.18697288
H       -1.36592770      -0.87716944      -0.92636252
H       -1.37957203      -1.08865544       0.75321869
H        2.09357288       0.16873387      -0.03449164
