9
Properties=species:S:1:pos:R:3 -97077.95002438502=T pbc="F F F"
C        0.03412456      -0.56995131      -0.00335968
C       -1.33106112       0.23599001      -0.02273565
O        1.17474549       0.29783564       0.05672559
H        0.21251065      -1.33931598       0.87589979
H        0.09535379      -1.20965376      -1.01385277
H       -1.97921430       0.30752386      -0.84627711
H       -1.95412619      -0.20645822       0.82741922
H       -1.16586849       1.33345026       0.31796445
H        1.58968246       0.36400602      -0.75071729
