9
Properties=species:S:1:pos:R:3 -97085.2517271452=T pbc="F F F"
C       -0.00947369       0.56440903      -0.02941609
C       -1.34131443      -0.25177387       0.01436587
O        1.19183415      -0.26177634       0.06423963
H        0.07124686       1.27949934      -0.82708577
H        0.28170948       1.13604633       0.90713779
H       -1.28422833      -0.90221420       0.82808176
H       -2.20260714       0.31592253       0.03939598
H       -1.20853332      -0.82042978      -0.98026039
H        1.51074240      -0.57673711      -0.80759859
