9
Properties=species:S:1:pos:R:3 -97090.17889044108=T pbc="F F F"
C        0.03904780      -0.63132485      -0.01992722
C       -1.27241770       0.25721674       0.02576743
O        1.15386149       0.27069740       0.02142112
H        0.10879762      -1.31730512       0.89918106
H        0.08514294      -1.10027267      -1.00482774
H       -2.11657410      -0.33902978       0.20669935
H       -1.12819213       1.09880569       0.65234843
H       -1.42112055       0.68047417      -0.94928585
H        0.84485110       1.13560467      -0.21362228
