9
Properties=species:S:1:pos:R:3 -97089.02301069269=T pbc="F F F"
C        0.00316358       0.53580430       0.00858103
C       -1.33012953      -0.24592343      -0.00730925
O        1.17217030      -0.31474889       0.02512994
H        0.20219469       1.17204995      -0.88471016
H       -0.10069018       1.25091964       0.87762488
H       -2.10579900       0.56909092       0.08945895
H       -1.34726071      -0.77308951      -0.96566068
H       -1.33809740      -1.01097510       0.71770974
H        1.88641553       0.33573552      -0.24839608
