9
Properties=species:S:1:pos:R:3 -97084.68590957527=T pbc="F F F"
C        0.02382748      -0.58262207      -0.00753246
C       -1.29276484       0.24225414      -0.02864124
O        1.15099783       0.33664981      -0.00088755
H       -0.03525229      -1.17740223       0.88403690
H       -0.02962333      -1.25725156      -0.90811900
H       -2.22697305      -0.23892768       0.50842188
H       -1.23102043       0.98901709       0.73862536
H       -1.52434249       0.70128079      -0.90620760
H        1.88906056      -0.30689055       0.12804248
