9
Properties=species:S:1:pos:R:3 -97091.92632616922=T pbc="F F F"
C       -0.00590522      -0.58047470       0.00600662
C       -1.26411596       0.26290890      -0.02199693
O        1.13541752       0.30982657       0.04655241
H       -0.07446897      -1.22381588       0.88621187
H        0.17187294      -1.14091133      -0.87406309
H       -1.17958421       0.98154162       0.80424785
H       -1.43388407       0.85697520      -0.94926951
H       -2.14700390      -0.48597929       0.16162352
H        1.76509294      -0.12378121      -0.57717728
