9
Properties=species:S:1:pos:R:3 -97088.03569154932=T pbc="F F F"
C       -0.03232510       0.56077466      -0.01740581
C       -1.27363387      -0.24357287       0.03974378
O        1.20164391      -0.21715964       0.02733423
H       -0.07304104       1.19300755      -0.98397972
H        0.13534320       1.11901098       0.91450756
H       -2.15534894       0.30120038      -0.15155419
H       -1.27074506      -0.96545776      -0.90918506
H       -1.30600697      -0.93445149       0.85442205
H        1.14866761      -1.04369589      -0.42399906
