9
Properties=species:S:1:pos:R:3 -97091.16188709009=T pbc="F F F"
C       -0.01814938      -0.59807900      -0.01115036
C       -1.25240318       0.25950577       0.01425476
O        1.17798193       0.23951334       0.01530073
H        0.24389427      -1.11782836       0.93875447
H       -0.04985703      -1.25583887      -0.90024672
H       -2.21751245      -0.26650220      -0.15363496
H       -1.33031891       0.82989142       0.97406912
H       -1.10308324       0.91806452      -0.81219921
H        0.88970083       1.12229641      -0.32653996
