9
Properties=species:S:1:pos:R:3 -97080.6277071044=T pbc="F F F"
C        0.00190998      -0.57574164      -0.03097783
C       -1.29109022       0.25336076       0.01896764
O        1.15506914       0.25633024       0.06758307
H        0.04418630      -1.37794217       0.72945373
H        0.25708740      -1.01064357      -1.01433320
H       -1.21818232       0.52127623       1.15986806
H       -1.00994788       1.15132347      -0.63857803
H       -2.25274739      -0.21586020      -0.41923685
H        1.19786675       0.70223319      -0.74676275
