9
Properties=species:S:1:pos:R:3 -97080.64846359356=T pbc="F F F"
C        0.06257799      -0.58338178      -0.04309113
C       -1.31137345       0.22406226       0.02409077
O        1.17440291       0.26182299       0.03973485
H        0.25791468      -1.28517447       0.76462154
H       -0.00218867      -0.99877010      -1.00548766
H       -1.48103290       0.24417641       1.13708859
H       -1.28098878       1.31765998      -0.35200471
H       -2.28581822      -0.17160152      -0.50522262
H        1.02268101       1.01674482      -0.44338211
