9
Properties=species:S:1:pos:R:3 -97083.3857635756=T pbc="F F F"
C        0.03638973      -0.64376662       0.00661135
C       -1.30997204       0.24025055      -0.00455887
O        1.11391503       0.35969042       0.03082031
H        0.06251669      -1.17935466       1.00522936
H        0.25517473      -1.21202946      -0.94561527
H       -2.29183739      -0.26637719       0.00317847
H       -1.21758144       1.01241129       0.72145296
H       -1.13570782       0.90598815      -0.94900258
H        1.81312176      -0.16458939      -0.34882225
