9
Properties=species:S:1:pos:R:3 -97089.62851026788=T pbc="F F F"
C       -0.06163063      -0.55573241      -0.02803148
C       -1.22766420       0.26439282       0.00571104
O        1.17948579       0.23043439       0.06914768
H       -0.01285389      -1.15937126       0.82112166
H       -0.08146169      -1.21966671      -0.83993247
H       -1.17981252       1.01531469       0.79458281
H       -1.37318129       0.91845717      -0.86080281
H       -2.14185424      -0.31514820       0.13268212
H        1.42128090       0.57218407      -0.87930963
