9
Properties=species:S:1:pos:R:3 -97079.30683904405=T pbc="F F F"
C        0.05979711      -0.66634347      -0.03302308
C       -1.29280153       0.25339432      -0.00144404
O        1.11736039       0.33343629       0.06580675
H        0.29699635      -1.27331384       0.87540137
H        0.26141941      -1.30928973      -0.89484012
H       -0.97687093       0.95073444       0.76924026
H       -1.66374505       0.66611359      -0.96089090
H       -2.12377385      -0.16408294       0.47321413
H        1.15382622       0.75487733      -0.89613147
