9
Properties=species:S:1:pos:R:3 -97086.55524902897=T pbc="F F F"
C        0.07230959       0.61441211      -0.03115568
C       -1.26644639      -0.27012846      -0.00720771
O        1.11516977      -0.30732869       0.06414394
H        0.10673943       1.44346835      -0.79573006
H       -0.02687486       1.19350887       0.98075343
H       -2.06614011       0.38757505       0.39276693
H       -1.68213881      -0.60620688      -0.97804526
H       -1.18668224      -1.07395366       0.67075071
H        1.37492532      -0.56618891      -0.83172035
