9
Properties=species:S:1:pos:R:3 -97081.32420769114=T pbc="F F F"
C       -0.02392577       0.63494194      -0.00861787
C       -1.22810310      -0.26790912       0.02000119
O        1.17245517      -0.25986093       0.01493279
H        0.06627439       1.03070432      -0.93404158
H        0.08282067       1.47668421       0.68195579
H       -2.19639452       0.10175236       0.25773120
H       -1.39595488      -0.71151456      -0.99998540
H       -0.94605466      -0.98813431       0.75879040
H        0.68928773      -1.15550735      -0.13698390
