9
Properties=species:S:1:pos:R:3 -97078.63839897636=T pbc="F F F"
C       -0.00196617      -0.60158915       0.01215304
C       -1.31013582       0.28164300      -0.03601565
O        1.18701548       0.28379078       0.05048387
H        0.04209799      -1.24954897       0.96651653
H       -0.07632708      -1.29673976      -0.87717098
H       -1.98640963       0.10792742      -0.82062644
H       -1.91793404       0.14489013       0.88487438
H       -0.78575836       1.27845959       0.23601514
H        1.50850760       0.32058986      -0.90669635
