9
Properties=species:S:1:pos:R:3 -97081.74259616877=T pbc="F F F"
C        0.02920249       0.50731935      -0.02287554
C       -1.34249511      -0.23295523       0.04316345
O        1.22605095      -0.22182053       0.04631680
H        0.11641497       1.13950916      -0.95641962
H        0.07945347       1.20005120       0.82377785
H       -1.98085916       0.65249967      -0.07256635
H       -1.68789817      -0.72863703      -0.93860797
H       -1.48424707      -0.96701261       0.79205719
H        1.13596782      -1.04276423      -0.62488704
