9
Properties=species:S:1:pos:R:3 -97084.97615751029=T pbc="F F F"
C       -0.03652066       0.61182886      -0.03452667
C       -1.26049329      -0.28895381       0.01923441
O        1.20984095      -0.24738703       0.05356336
H       -0.06545337       1.06995032      -1.04420872
H        0.05470156       1.53403876       0.70074324
H       -2.18151239       0.21721671      -0.39188543
H       -1.06372419      -1.33115810      -0.45471199
H       -1.49991775      -0.45197008       1.08930311
H        0.99817521      -0.95628384      -0.56724724
