9
Properties=species:S:1:pos:R:3 -97089.104145798=T pbc="F F F"
C       -0.00141729      -0.53636377      -0.02164520
C       -1.25804280       0.27077894       0.00221775
O        1.16353452       0.25279157       0.06039885
H        0.04349404      -1.30196673       0.78219512
H       -0.00486624      -1.16890401      -0.88693700
H       -1.19965346       0.87504577       0.88253167
H       -1.73220995       0.81127233      -0.82502866
H       -2.01002024      -0.57454023       0.15001356
H        1.43329422       0.50938026      -0.83002890
