9
Properties=species:S:1:pos:R:3 -97086.75759383882=T pbc="F F F"
C        0.05804382      -0.56142218      -0.01358807
C       -1.21977551       0.22015946       0.01344056
O        1.09960025       0.25806469       0.03530409
H        0.20537901      -1.21653663       0.80448958
H        0.08807191      -1.27715482      -0.88112810
H       -1.51924965       0.82651398       0.92180152
H       -1.23211490       0.83391689      -0.90499785
H       -2.14710253      -0.29924894      -0.08873710
H        0.98610247       1.10019228      -0.40997320
