9
Properties=species:S:1:pos:R:3 -97084.71129540952=T pbc="F F F"
C       -0.00791394      -0.55631901       0.00081751
C       -1.22754565       0.23284747      -0.02291494
O        1.09811256       0.27533440       0.05365776
H       -0.05314273      -0.88693181       1.01862122
H        0.15333554      -1.33229477      -0.80168406
H       -0.96111953       1.12314920       0.53831080
H       -1.39606163       0.67946613      -1.06598119
H       -2.06964363      -0.24496301       0.43948177
H        1.60919442       0.14333768      -0.71722572
