9
Properties=species:S:1:pos:R:3 -97085.04756312082=T pbc="F F F"
C        0.09738499      -0.59113693      -0.01697552
C       -1.34619462       0.23088741      -0.02347228
O        1.12795254       0.31201448       0.06422268
H        0.15511941      -1.18217705       0.94515685
H        0.19006409      -1.19569497      -0.90279666
H       -2.24461893      -0.37030008       0.19008445
H       -1.19183224       0.85419070       0.94334689
H       -1.54766221       0.81804699      -0.89490637
H        1.60686692       0.41346745      -0.81854072
