9
Properties=species:S:1:pos:R:3 -97081.88979232039=T pbc="F F F"
C        0.04619913       0.60843615       0.01406569
C       -1.27134952      -0.26643334       0.00109194
O        1.14439450      -0.29665995       0.04793303
H       -0.05193490       1.40580817      -0.84438741
H        0.01475772       1.09887729       1.01342197
H       -1.54522993      -0.93039730       0.84822151
H       -2.13606401       0.50868992      -0.31524341
H       -1.26034784      -1.03492925      -0.75962335
H        1.40410360      -0.41200891      -0.88360058
