9
Properties=species:S:1:pos:R:3 -97078.03681632897=T pbc="F F F"
C        0.06306345       0.57910181      -0.00954357
C       -1.32940107      -0.24072517       0.01162651
O        1.13355959      -0.33452489       0.02408881
H       -0.04046547       1.15845600      -0.87564322
H        0.17789943       1.38029835       0.85803603
H       -2.23212967       0.34205325       0.40140855
H       -1.77151913      -0.62862440      -0.96258309
H       -0.88416688      -1.10601562       0.57123777
H        1.83803344       0.13399254      -0.39956418
