9
Properties=species:S:1:pos:R:3 -97087.31719395492=T pbc="F F F"
C        0.02150071      -0.59904535      -0.03359361
C       -1.30393330       0.27097303       0.02602331
O        1.21004028       0.24782069       0.05656469
H       -0.13895540      -1.27748444       0.81370090
H        0.05819868      -1.06042077      -0.98937704
H       -1.19586417       0.99451685      -0.72051616
H       -2.14492561      -0.31441392      -0.33357818
H       -1.45295659       0.64055477       1.03512197
H        0.93999083       0.99045420      -0.61293594
