9
Properties=species:S:1:pos:R:3 -97082.64549779487=T pbc="F F F"
C        0.05575531       0.58145639       0.00018387
C       -1.28901921      -0.23308583      -0.01670334
O        1.11354401      -0.35082405       0.01011202
H        0.25642816       1.31071877      -0.74244882
H        0.04083666       1.17912152       0.89478853
H       -2.22325867       0.48760719      -0.38183675
H       -1.25325532      -1.20208359      -0.59093420
H       -1.69638118      -0.58623973       0.97319473
H        1.88714081       0.23071947      -0.11655401
