9
Properties=species:S:1:pos:R:3 -97090.30549904716=T pbc="F F F"
C        0.04236780       0.54195317      -0.01541237
C       -1.35877658      -0.24856390       0.00007983
O        1.19645778      -0.27027319       0.07188321
H        0.15227779       1.11586911      -0.93813027
H        0.01181838       1.22299719       0.88050267
H       -1.78616562      -0.23139560       1.03317711
H       -2.07289473       0.25529989      -0.69314707
H       -1.12736402      -1.18819366      -0.40071902
H        1.50792895      -0.37848113      -0.83996006
