9
Properties=species:S:1:pos:R:3 -97090.51735764292=T pbc="F F F"
C        0.00360114      -0.52320659       0.01253040
C       -1.35464157       0.23373834      -0.01014409
O        1.19765953       0.27763923       0.05432962
H        0.07070951      -1.10362094       0.94755692
H        0.14725689      -1.18780816      -0.82390025
H       -2.14132145      -0.52849170       0.00728331
H       -1.38761862       1.00789569       0.76704858
H       -1.29405589       0.80598098      -0.99040151
H        1.68391059       0.04635698      -0.79825091
