9
Properties=species:S:1:pos:R:3 -97089.50618995904=T pbc="F F F"
C        0.01529211      -0.62489241      -0.00489690
C       -1.23807598       0.25029929      -0.00562063
O        1.07590579       0.34462808       0.03121567
H        0.15350386      -1.28042746       0.96508494
H        0.02458956      -1.36750704      -0.80352871
H       -2.17921682      -0.14728164       0.29844663
H       -1.11062144       1.12555400       0.60098920
H       -1.32142270       0.67555881      -1.02461730
H        1.91723994      -0.01517825      -0.40655962
