9
Properties=species:S:1:pos:R:3 -97092.17112209696=T pbc="F F F"
C       -0.00627412      -0.60818811      -0.00336743
C       -1.24073104       0.25043216      -0.01506988
O        1.07903159       0.33007710       0.01923135
H        0.07781461      -1.25295610       0.86075631
H        0.19862143      -1.11294615      -0.94794992
H       -2.22945988      -0.19641015       0.19778204
H       -1.07738272       0.87942547       0.82185318
H       -1.17301904       0.81515551      -0.92171854
H        1.92628802      -0.11109290      -0.09640862
