9
Properties=species:S:1:pos:R:3 -97087.16848737847=T pbc="F F F"
C        0.02008530      -0.56064538      -0.02245266
C       -1.38314693       0.26456419      -0.00396637
O        1.23604480       0.26197462       0.07235358
H        0.01069398      -1.26896951       0.80283599
H        0.06988298      -1.22252764      -0.89537710
H       -1.45177548       0.76368389      -0.97494382
H       -2.22662918      -0.37671734       0.15200654
H       -1.44222896       0.87636194       0.85211045
H        1.65286992       0.59582929      -0.77036904
