9
Properties=species:S:1:pos:R:3 -97085.66263365433=T pbc="F F F"
C       -0.02841231       0.56163388       0.00361786
C       -1.31964456      -0.26142583      -0.01761312
O        1.19165784      -0.27084475       0.05318490
H       -0.10349855       1.30384750      -0.84186755
H        0.12778753       1.06338718       0.94650394
H       -2.16623865       0.39687410       0.17309592
H       -1.27064802      -0.93940882      -0.86672146
H       -1.08845736      -0.98036663       0.75904430
H        1.63966262      -0.12035635      -0.84749889
