9
Properties=species:S:1:pos:R:3 -97083.83863902572=T pbc="F F F"
C        0.03912997       0.58523695      -0.04143110
C       -1.27980239      -0.23275296       0.01569192
O        1.15596281      -0.26507069       0.06964162
H        0.04337803       1.14916428      -1.02963512
H        0.01669842       1.25709359       0.78152911
H       -2.07223917       0.34398911       0.49439173
H       -1.72340450      -0.84567616      -0.79332618
H       -0.91187338      -1.13950483       0.53376683
H        1.07394578      -0.75516826      -0.78551738
