9
Properties=species:S:1:pos:R:3 -97080.56909307199=T pbc="F F F"
C       -0.07237514      -0.59162343      -0.03703227
C       -1.22976437       0.24388843       0.01471997
O        1.19107050       0.22726512       0.05858806
H        0.15353238      -1.36131372       0.77182290
H       -0.00424942      -1.05102979      -1.05323819
H       -2.29038577      -0.12206922       0.21034811
H       -1.15659202       1.06169710       0.80443139
H       -1.17067292       0.99437784      -0.83030433
H        1.06956671       1.01189657      -0.56722631
