9
Properties=species:S:1:pos:R:3 -97083.84509691704=T pbc="F F F"
C        0.06987948      -0.60384898       0.00057860
C       -1.26075563       0.26082325      -0.00862831
O        1.06907138       0.33611424       0.03364056
H       -0.05953169      -1.27476441       0.90479924
H        0.06459388      -1.35294261      -0.84299643
H       -1.87630834       0.10627520       0.85113475
H       -0.83428480       1.29003022      -0.18378136
H       -2.00421554      -0.00966267      -0.78821822
H        1.92236620      -0.00896409      -0.37899168
