9
Properties=species:S:1:pos:R:3 -97083.06461140905=T pbc="F F F"
C        0.04017649       0.55883830       0.00134719
C       -1.29712650      -0.25740176      -0.01027114
O        1.15111493      -0.26494351       0.06377701
H       -0.01422478       1.15353149      -0.93778406
H       -0.01565670       1.06490283       0.93520559
H       -1.76520046      -0.20503111       0.96551680
H       -1.91178621       0.33816687      -0.68188862
H       -1.02252990      -1.38478960      -0.31479837
H        1.42665705      -0.35108800      -0.87218270
