9
Properties=species:S:1:pos:R:3 -97085.24127553769=T pbc="F F F"
C        0.02270270      -0.55518464       0.02977131
C       -1.22745662       0.25322999      -0.00266099
O        1.09360193       0.28167318       0.05496732
H        0.15058431      -1.30064838       0.74303471
H       -0.04072179      -1.15078578      -0.89002335
H       -1.58671638       0.63778415       0.98519230
H       -0.90263990       1.04804171      -0.66983324
H       -2.11222378      -0.34272455      -0.50881165
H        1.48025995       0.23329737      -0.85472791
