9
Properties=species:S:1:pos:R:3 -97092.84863092435=T pbc="F F F"
C        0.02827682       0.53787601      -0.03877670
C       -1.30838568      -0.24423258       0.01572156
O        1.19483318      -0.22642991       0.05395595
H       -0.01098534       1.15592551      -0.96523678
H       -0.04358990       1.29400589       0.85209350
H       -2.07315689       0.30240242      -0.50798311
H       -1.17329221      -1.24015730      -0.43626830
H       -1.56327709      -0.43104435       1.05198718
H        1.14346874      -0.98388719      -0.57639910
