9
Properties=species:S:1:pos:R:3 -97081.12573914732=T pbc="F F F"
C        0.08417334      -0.62559892      -0.00425774
C       -1.34123507       0.24227125      -0.01579836
O        1.16507263       0.29907830       0.06396964
H       -0.09348644      -1.13020531       0.91615949
H        0.18775217      -1.14249115      -0.96871515
H       -2.03388521       0.09762642      -0.83283378
H       -1.92995877       0.16239586       0.91271089
H       -0.89240590       1.25787217       0.04683474
H        1.23905480       0.57242915      -0.85059618
