9
Properties=species:S:1:pos:R:3 -97081.70598902692=T pbc="F F F"
C       -0.01550393       0.58039725      -0.01224796
C       -1.23663732      -0.28558710       0.02434888
O        1.18154536      -0.23718760       0.02173696
H       -0.12835103       1.16106844      -1.00016875
H        0.11479998       1.32179024       0.85388105
H       -1.45967567      -0.78283777       0.91896551
H       -1.86016856       0.54477220      -0.12054464
H       -1.32793044      -0.86049284      -0.82622872
H        0.81837478      -1.13021491      -0.31496940
