9
Properties=species:S:1:pos:R:3 -97088.02794322064=T pbc="F F F"
C        0.01731849       0.48136835      -0.02564319
C       -1.34837468      -0.22692382      -0.00127857
O        1.22054369      -0.23404926       0.06934911
H        0.01924762       1.09878241      -0.88350070
H        0.04010000       1.32265019       0.70857900
H       -2.01477899       0.59226267       0.00187654
H       -1.58353043      -0.98065345      -0.71668316
H       -1.52840164      -0.79403319       0.86889277
H        1.54510737      -0.55410431      -0.75923236
