9
Properties=species:S:1:pos:R:3 -97087.22851846833=T pbc="F F F"
C       -0.00952070      -0.52429841      -0.00518133
C       -1.26932038       0.24379455       0.01048171
O        1.17179020       0.24661396       0.06130519
H        0.08289848      -1.37983740       0.76178839
H        0.12313031      -1.17904610      -0.94827106
H       -1.53954053       0.59160984       0.94409683
H       -1.25151961       1.15794001      -0.50972753
H       -2.09295247      -0.39717742      -0.46048782
H        1.30776463       0.63248009      -0.82346750
