9
Properties=species:S:1:pos:R:3 -97085.97555674193=T pbc="F F F"
C        0.05544525      -0.56793544      -0.02254710
C       -1.28229129       0.22846308      -0.00826744
O        1.13555333       0.27375202       0.07153354
H        0.02673614      -1.01651426       0.97538622
H        0.13765343      -1.16905577      -0.99316753
H       -1.34413180       0.76787014       0.92515088
H       -1.46150854       0.91747744      -0.92266529
H       -2.20416570      -0.33224452       0.08720425
H        1.43120673       0.52986295      -0.84029429
