9
Properties=species:S:1:pos:R:3 -97085.87412058083=T pbc="F F F"
C       -0.03790090      -0.62054594      -0.03297303
C       -1.27281055       0.28424328       0.01259362
O        1.18007860       0.24747457       0.04931058
H       -0.01259935      -1.29651415       0.91248709
H        0.08784159      -1.31431383      -0.85254061
H       -1.24397741       0.91234358       0.92933383
H       -1.13559320       1.04395820      -0.71960146
H       -2.18775697      -0.22789883      -0.22114932
H        1.36979837       0.95912217      -0.58846998
