9
Properties=species:S:1:pos:R:3 -97076.95883320595=T pbc="F F F"
C        0.03484480      -0.58691488      -0.01931232
C       -1.29994064       0.26064304       0.00287347
O        1.18869343       0.27423169       0.04705282
H        0.10727006      -1.03287485       0.94404635
H       -0.11442201      -1.63246560      -0.69990103
H       -2.29348090      -0.36778450       0.02725298
H       -1.34685077       0.97523808       0.86237190
H       -1.49110627       0.92918573      -0.86968990
H        1.33644183       0.66130811      -0.81510808
