9
Properties=species:S:1:pos:R:3 -97081.17054973076=T pbc="F F F"
C        0.02386597       0.56311984       0.00180635
C       -1.28854474      -0.21878830       0.00917072
O        1.13330628      -0.28840987       0.06120577
H        0.12234380       1.32561412      -0.80647612
H        0.12809838       1.16971410       0.83333823
H       -0.86747257      -1.16987919       0.34395169
H       -2.33649734      -0.01309214       0.38415943
H       -1.47488799      -0.52634023      -1.01283081
H        1.50033608      -0.30863939      -0.84422452
