9
Properties=species:S:1:pos:R:3 -97090.00337803626=T pbc="F F F"
C       -0.03544160       0.57949158      -0.03582075
C       -1.32657335      -0.28989237       0.00401847
O        1.25431758      -0.24057063       0.05548626
H       -0.06026342       1.24148596      -0.85971116
H       -0.01341429       1.20123615       0.89112741
H       -1.56748995      -0.60355872      -0.95429809
H       -1.09389936      -1.07634142       0.74471238
H       -2.12030219       0.34077396       0.42599973
H        1.16571760      -0.73377362      -0.74977313
