9
Properties=species:S:1:pos:R:3 -97080.22225942153=T pbc="F F F"
C        0.04963312      -0.60402505       0.00402295
C       -1.32938216       0.24863571       0.00079049
O        1.14159227       0.32149295       0.04692860
H        0.16542422      -1.39942661       0.89571209
H        0.00385494      -0.95902236      -1.01867729
H       -1.58262698       0.31356755      -1.04684070
H       -2.24790837      -0.20346458       0.51050230
H       -1.08360633       1.29800443       0.41626107
H        1.86471735       0.07957515      -0.55906110
