9
Properties=species:S:1:pos:R:3 -97083.54438905742=T pbc="F F F"
C       -0.00962569      -0.60782904      -0.02252277
C       -1.31081256       0.28702465       0.02815513
O        1.20339281       0.24724586       0.03723348
H       -0.01359862      -1.20981964       0.84363910
H        0.13605217      -1.15719296      -0.96615614
H       -1.08927125       0.80733720       0.92152610
H       -1.28793893       0.89358872      -0.87423322
H       -2.00688061      -0.47093685      -0.09070681
H        0.88515205       1.03281515      -0.49205479
