9
Properties=species:S:1:pos:R:3 -97071.85282716983=T pbc="F F F"
C        0.04676080       0.56994445      -0.02875353
C       -1.26969090      -0.24093890      -0.02412525
O        1.18525734      -0.25028923       0.01151196
H        0.02460570       1.33918108      -0.77078492
H       -0.14393607       1.39785217       0.84361762
H       -1.30833540      -1.02873378       0.89518104
H       -2.03359309       0.49042560       0.31881999
H       -1.54560731      -0.95157521      -0.88181931
H        0.75719122      -1.19229083       0.04190109
