9
Properties=species:S:1:pos:R:3 -97082.29588683386=T pbc="F F F"
C       -0.03959605       0.62230025      -0.02365555
C       -1.27799384      -0.26995622       0.00318490
O        1.21429434      -0.26156977       0.03422370
H        0.11142740       1.47082118      -0.71220961
H        0.04513094       0.95348938       1.03927148
H       -1.33187496      -0.83873978       1.04710414
H       -2.18913428       0.24433480      -0.26449100
H       -1.21367321      -1.04205790      -0.73694542
H        0.99470885      -0.83184559      -0.67214399
