9
Properties=species:S:1:pos:R:3 -97080.9339336949=T pbc="F F F"
C       -0.00378989      -0.56848606      -0.02282981
C       -1.35586013       0.26939113       0.01370617
O        1.24340458       0.24181596       0.04816837
H        0.21316219      -1.20246541       0.73651423
H        0.13057980      -1.12443024      -0.94414291
H       -2.09217667      -0.25709138      -0.65169698
H       -1.82453319       0.09219967       0.99289654
H       -1.08858510       1.31005761      -0.25654393
H        1.11693984       0.90520723      -0.53286040
