9
Properties=species:S:1:pos:R:3 -97089.22231231468=T pbc="F F F"
C       -0.01204522      -0.61868653      -0.01254136
C       -1.26494833       0.27859256       0.00648689
O        1.16773424       0.28926003       0.05733949
H        0.19169142      -1.32877653       0.81792307
H        0.05361051      -1.26484838      -0.88660289
H       -1.13753272       1.05735477       0.82984537
H       -1.61635768       0.76657138      -0.91225424
H       -2.13047790      -0.35197945       0.20512185
H        1.31122004       0.58035239      -0.89196299
