9
Properties=species:S:1:pos:R:3 -97085.24299770252=T pbc="F F F"
C        0.06755463      -0.61969174      -0.04403187
C       -1.30549633       0.23376116       0.01026360
O        1.13915929       0.29641183       0.06052930
H        0.29487809      -1.37323007       0.77136969
H        0.23911073      -1.16580566      -0.97973514
H       -1.46608826       0.98594826      -0.74660162
H       -2.13816987      -0.44733493       0.15440879
H       -1.19469039       0.85119370       0.88712178
H        0.92563477       1.04016713      -0.64513434
