9
Properties=species:S:1:pos:R:3 -97088.29529886066=T pbc="F F F"
C       -0.01183913      -0.52081481      -0.01635547
C       -1.31301233       0.24564381      -0.01319847
O        1.18552918       0.28316756      -0.01351622
H       -0.13735240      -1.01574579       0.95326744
H        0.06551158      -1.28145917      -0.76664812
H       -2.00320349      -0.38836598       0.58465751
H       -1.26842065       1.15824390       0.56056681
H       -1.68720029       0.41921434      -0.98776539
H        1.99023623      -0.10954797       0.22232782
