9
Properties=species:S:1:pos:R:3 -97086.53553715792=T pbc="F F F"
C       -0.03520907       0.51948714      -0.04251162
C       -1.30702974      -0.25282700       0.00473704
O        1.21954426      -0.23394958       0.05967145
H       -0.03483823       1.37004366      -0.77855236
H        0.08258611       1.22335463       0.88784666
H       -1.26286141      -0.73867652       0.97379257
H       -2.29004781       0.26721605      -0.05179611
H       -1.31496138      -0.98810520      -0.76878987
H        1.44687793      -0.59595975      -0.75975464
