9
Properties=species:S:1:pos:R:3 -97091.92889320842=T pbc="F F F"
C        0.03029222       0.57260393      -0.03425190
C       -1.29473225      -0.24386455      -0.00372368
O        1.16996007      -0.25848007       0.06311171
H        0.04199536       1.17389429      -0.93717860
H        0.07581958       1.26127017       0.75893057
H       -1.26680519      -0.68227315       1.01001470
H       -2.24325004       0.24237556       0.05267513
H       -1.44114349      -0.99746371      -0.74455181
H        1.32073921      -0.80978044      -0.68934991
