9
Properties=species:S:1:pos:R:3 -97084.30575810674=T pbc="F F F"
C       -0.03651212       0.55461354      -0.03176152
C       -1.28440179      -0.30207916       0.00965041
O        1.21797796      -0.24977792       0.06774198
H       -0.08729716       1.25986662      -0.80901396
H       -0.06042192       1.32639623       0.83421795
H       -1.16114220      -1.10152977      -0.69518843
H       -1.54768462      -0.50302072       1.05501328
H       -2.19207227       0.37996161      -0.37400139
H        1.44631966      -0.40440079      -0.82286859
