9
Properties=species:S:1:pos:R:3 -97091.01785552841=T pbc="F F F"
C        0.00312481      -0.59032168      -0.01718316
C       -1.27732249       0.27668917       0.01781928
O        1.19382207       0.23941594       0.04054322
H        0.09818165      -1.41087054       0.65990518
H       -0.06529497      -0.94438899      -1.06974621
H       -1.30184046       0.97256025      -0.83321807
H       -2.08463194      -0.49074909      -0.06608154
H       -1.42481696       0.74137449       1.03534565
H        1.00323354       1.06673772      -0.37722957
