9
Properties=species:S:1:pos:R:3 -97088.84517890339=T pbc="F F F"
C        0.00837519       0.58844938      -0.00002678
C       -1.30409835      -0.25064759      -0.00077866
O        1.16297209      -0.29100013       0.06340134
H        0.15493688       1.39546293      -0.84771364
H        0.08282883       1.15061639       0.91654652
H       -1.26178035      -0.93260317      -0.91289340
H       -1.34871560      -0.96002014       0.81030346
H       -2.13438408       0.35382137      -0.06564333
H        1.47785696      -0.41104227      -0.89723460
