9
Properties=species:S:1:pos:R:3 -97081.13658795352=T pbc="F F F"
C        0.01866566      -0.64709062      -0.01809075
C       -1.31398922       0.27393906       0.00317692
O        1.21043197       0.27481904       0.05294218
H        0.19565677      -1.26052776       0.85616028
H       -0.11243015      -1.15460167      -1.01633727
H       -1.33096601       0.75968904      -0.93697894
H       -2.34665618      -0.24230734       0.20365355
H       -1.40593676       1.02760716       0.87601875
H        1.21309425       0.95161459      -0.64517080
