9
Properties=species:S:1:pos:R:3 -97080.95937652535=T pbc="F F F"
C        0.01732149      -0.54877873      -0.03196863
C       -1.34482106       0.24611485       0.03595888
O        1.23700065       0.22988339       0.04245631
H        0.13613519      -1.31633373       0.87372104
H       -0.11491694      -1.08336889      -1.01870403
H       -1.34820872       1.17798417      -0.64340991
H       -2.07944297      -0.38411297      -0.55991799
H       -1.72734918       0.54585982       1.10003831
H        1.30799466       1.01532248      -0.47305099
