9
Properties=species:S:1:pos:R:3 -97078.17734894707=T pbc="F F F"
C        0.07436512       0.56848796      -0.03927261
C       -1.33522854      -0.21152028       0.01281502
O        1.15296233      -0.25364245       0.04798411
H        0.03050447       1.12837518      -1.01120692
H        0.21423163       1.09480005       0.88421775
H       -1.12417176      -0.90101820       0.76564496
H       -2.17946667       0.33435070       0.26054489
H       -1.49649448      -0.94385571      -0.84565259
H        1.26993265      -0.93751528      -0.50006476
