9
Properties=species:S:1:pos:R:3 -97086.45838776085=T pbc="F F F"
C        0.00856401       0.52415777      -0.01652477
C       -1.31041239      -0.22651277       0.00189532
O        1.15711757      -0.31567553       0.00351932
H        0.12472671       1.04784886      -1.05177014
H        0.01083199       1.36031712       0.76387036
H       -1.67633319      -0.67899076      -0.97017517
H       -1.34108299      -1.03584440       0.72937529
H       -1.92024486       0.50824492       0.46983153
H        1.93869236       0.26441594       0.17720429
