9
Properties=species:S:1:pos:R:3 -97079.14091241443=T pbc="F F F"
C       -0.05392050       0.63979547       0.00273142
C       -1.23300836      -0.29662504      -0.02452503
O        1.11892251      -0.33485521       0.03628077
H        0.13233156       1.39514429      -0.81965778
H        0.13535093       1.22972972       0.99501759
H       -1.38258193      -1.11353913       0.75683017
H       -2.03705565       0.44744143       0.18818422
H       -1.21022283      -0.77480884      -1.01030438
H        1.92730710       0.04435613      -0.42637918
