9
Properties=species:S:1:pos:R:3 -97084.39040240103=T pbc="F F F"
C        0.03708778      -0.63332696      -0.03513333
C       -1.24620232       0.24314622       0.00889648
O        1.14389009       0.28970429       0.06392290
H        0.15162559      -1.40035094       0.80067743
H        0.09602039      -1.14278168      -0.99177995
H       -2.23010250      -0.30385183       0.33134300
H       -1.31030384       1.15184814       0.76567558
H       -1.37776322       0.78990980      -0.94776751
H        0.91287751       0.95322449      -0.66025372
