9
Properties=species:S:1:pos:R:3 -97084.33845301709=T pbc="F F F"
C       -0.05034203      -0.56422138       0.00129190
C       -1.29483749       0.25831134       0.00084025
O        1.22738646       0.22926714       0.04883417
H       -0.02379573      -1.17428071       0.90678402
H       -0.00828430      -1.19168526      -0.97474975
H       -2.20532033      -0.20069464      -0.54830212
H       -1.58270892       0.64100037       0.95583089
H       -0.92244465       1.25188656      -0.38078609
H        1.27986219       0.67755627      -0.75919777
