9
Properties=species:S:1:pos:R:3 -97091.69625355536=T pbc="F F F"
C        0.00191263       0.59549896       0.02519249
C       -1.24800574      -0.26793553      -0.02016521
O        1.13998399      -0.31747367       0.04164186
H        0.07264906       1.24153203      -0.87488272
H       -0.06534307       1.25305907       0.85868851
H       -2.09027807       0.39050676      -0.32419155
H       -1.35721369      -1.05578002      -0.75456576
H       -1.58482875      -0.69957899       0.98313990
H        1.76965859       0.00855702      -0.60893381
