9
Properties=species:S:1:pos:R:3 -97090.01567492956=T pbc="F F F"
C       -0.04830124      -0.55137659      -0.01576383
C       -1.28208845       0.27815419      -0.00143850
O        1.22648560       0.24356233       0.06569877
H        0.00175544      -1.19384521       0.89902336
H       -0.16675770      -1.18404740      -0.90101641
H       -1.41779340       1.00162135      -0.78974156
H       -2.07271592      -0.46351736      -0.11780766
H       -1.50587746       0.80006959       0.96482192
H        1.53689469       0.42742041      -0.89314153
