9
Properties=species:S:1:pos:R:3 -97080.52170812053=T pbc="F F F"
C       -0.07472778       0.65516659      -0.03441698
C       -1.16474050      -0.30012905       0.03000313
O        1.11078969      -0.31060046      -0.04464254
H       -0.00887098       1.19920764      -0.94763231
H        0.00961696       1.17426041       0.98218180
H       -2.06137219       0.26082984      -0.02879387
H       -1.21334352      -1.07170319      -0.90768000
H       -1.21522692      -0.89128157       0.95191236
H        1.61829461       0.03077041       0.71107647
