9
Properties=species:S:1:pos:R:3 -97080.75353710701=T pbc="F F F"
C       -0.03487430       0.58837100      -0.01310409
C       -1.31967132      -0.24195926       0.03208167
O        1.23022655      -0.24467271       0.03541528
H       -0.02473169       1.29489098      -0.88756349
H        0.21857042       1.28086780       0.78673684
H       -2.34188941       0.11996230       0.05466475
H       -1.24067193      -0.81734572      -0.88702076
H       -1.17387470      -1.15844491       0.65314155
H        1.16635197      -0.96146220      -0.50798792
