9
Properties=species:S:1:pos:R:3 -97082.86917795423=T pbc="F F F"
C        0.02316259      -0.56476985      -0.03753677
C       -1.31537934       0.26824676       0.00900282
O        1.22874851       0.23902245       0.06166414
H       -0.13284993      -1.16407469       0.90244445
H       -0.05316665      -1.32419803      -0.87044102
H       -2.25588081      -0.45560351      -0.12783517
H       -1.58186423       0.79765566       1.01143759
H       -1.27092097       1.02713964      -0.88463945
H        1.17975546       0.85627078      -0.66987216
