9
Properties=species:S:1:pos:R:3 -97086.68355083275=T pbc="F F F"
C       -0.03851219      -0.52616600       0.00588925
C       -1.31509299       0.26947478      -0.01715140
O        1.23757746       0.24912187       0.05197927
H        0.00222594      -1.03936028       0.96795657
H       -0.14102943      -1.08749384      -0.94156838
H       -1.48781169       0.73867987       0.97514364
H       -1.47340457       0.79614159      -0.92196410
H       -2.11446482      -0.45268118       0.00710754
H        1.69037722       0.14734749      -0.77752764
