9
Properties=species:S:1:pos:R:3 -97077.89336252144=T pbc="F F F"
C       -0.02794951      -0.57689873      -0.02856689
C       -1.25223013       0.23985942      -0.01507647
O        1.13329630       0.31994887       0.01582895
H       -0.07463786      -1.41541753       0.82374755
H        0.22639936      -0.95856503      -0.90125968
H       -2.23081401      -0.27703692      -0.22278393
H       -1.41552135       0.64324920       1.04588544
H       -1.17106777       1.22171553      -0.53250706
H        1.92228662      -0.27869651       0.05535471
