9
Properties=species:S:1:pos:R:3 -97091.6664557103=T pbc="F F F"
C        0.00052684      -0.50938884      -0.01923469
C       -1.29108887       0.23614564       0.00121319
O        1.18528030       0.23580768       0.07237505
H        0.05131034      -1.25151903       0.79232752
H       -0.09340182      -1.10446418      -0.99661850
H       -2.19274977      -0.39463464       0.23705166
H       -1.38162887       0.96682929       0.78280120
H       -1.38581216       0.81119048      -0.96828475
H        1.55752479       0.48361895      -0.78134278
