9
Properties=species:S:1:pos:R:3 -97084.95622519523=T pbc="F F F"
C       -0.03241095      -0.51204432      -0.02149484
C       -1.32686969       0.24368302       0.03446249
O        1.25348266       0.19877966       0.04180037
H        0.03736402      -1.27166854       0.85192846
H       -0.12040499      -1.12391048      -0.94265167
H       -2.11325179      -0.42863981      -0.43101988
H       -1.50248501       0.81601553       1.03872207
H       -1.22380555       1.04871416      -0.75038691
H        1.21362556       1.00004380      -0.58439786
