9
Properties=species:S:1:pos:R:3 -97080.35107188902=T pbc="F F F"
C       -0.10735222      -0.63334646       0.00769512
C       -1.23698404       0.28460854      -0.03470633
O        1.15858473       0.32485362       0.02331447
H       -0.08218228      -1.28371161       0.86649419
H        0.16746106      -1.21399105      -0.96861761
H       -1.18323148       0.85486875      -0.93010955
H       -2.12582261      -0.11551503       0.37163775
H       -1.04847898       1.07327506       0.73643080
H        1.89145550      -0.31822613      -0.12423518
