9
Properties=species:S:1:pos:R:3 -97080.59383419708=T pbc="F F F"
C       -0.05091458       0.61258641      -0.01911187
C       -1.25338966      -0.25377654       0.01883454
O        1.18649589      -0.26130167       0.04662553
H        0.02931920       1.30417451      -0.89585270
H        0.29941371       1.15321150       0.87142617
H       -1.48683730      -0.58931071      -1.12961635
H       -1.02145831      -1.16847721       0.62090530
H       -2.19475553       0.01927596       0.51087827
H        1.07389441      -0.84411461      -0.71441954
