9
Properties=species:S:1:pos:R:3 -97078.71514082776=T pbc="F F F"
C        0.07577042       0.48761795      -0.01810779
C       -1.38997956      -0.22467719       0.00756295
O        1.21833327      -0.21885884       0.04779899
H       -0.13263394       1.16803086      -0.92424345
H        0.15191124       1.02535336       0.88378169
H       -1.74025767      -0.17063521       1.04193973
H       -2.17730125       0.29987933      -0.67855483
H       -1.27812299      -1.22020862      -0.25999680
H        1.48863453      -0.75976164      -0.69597537
