9
Properties=species:S:1:pos:R:3 -97084.98221107667=T pbc="F F F"
C       -0.00360989      -0.54590951      -0.02877426
C       -1.31926096       0.26962687       0.01086662
O        1.20171406       0.24170338       0.07064480
H       -0.00814152      -1.17828367       0.91827484
H        0.19200544      -1.07493559      -0.92705336
H       -2.17568185      -0.46687120       0.01916437
H       -1.47762972       0.87869029       0.85580162
H       -1.31793062       0.65279284      -1.04712027
H        1.46650068       0.64224939      -0.72702819
