9
Properties=species:S:1:pos:R:3 -97089.87675326441=T pbc="F F F"
C        0.03701674      -0.63178042      -0.04217968
C       -1.28503018       0.26154659       0.00119385
O        1.14334313       0.28207627       0.06330838
H        0.11379806      -1.11874322       0.94425504
H        0.03755889      -1.26682742      -0.87797120
H       -1.10105696       1.18933731       0.61043644
H       -1.58768984       0.62794148      -1.01751102
H       -2.06433350      -0.29153322       0.56156385
H        1.31592040       0.79138080      -0.73751185
