9
Properties=species:S:1:pos:R:3 -97090.70417859667=T pbc="F F F"
C        0.03515080       0.58649193       0.00707123
C       -1.23451148      -0.24388702       0.00716089
O        1.04936721      -0.33988535       0.01081135
H        0.00657383       1.29264613      -0.88108270
H        0.15393757       1.31384174       0.89240389
H       -2.10346501       0.29568953       0.11960841
H       -1.28418967      -0.73673703      -1.00845822
H       -1.06240031      -0.98204324       0.76575488
H        1.91590652       0.13149200      -0.22926963
