9
Properties=species:S:1:pos:R:3 -97087.96943706083=T pbc="F F F"
C        0.03074376      -0.56631836      -0.01991884
C       -1.29284264       0.25265037       0.00233034
O        1.12892888       0.27385903       0.06635537
H        0.09600027      -1.25494764       0.78687921
H        0.27605307      -1.17269265      -0.80327263
H       -2.13122819      -0.41472176       0.16992030
H       -1.23661409       1.01071387       0.74945877
H       -1.42380593       0.63203260      -1.00278133
H        1.53026942       0.58806506      -0.74388901
