9
Properties=species:S:1:pos:R:3 -97091.01098407009=T pbc="F F F"
C        0.00548588      -0.55008979      -0.03536683
C       -1.26553811       0.25443137       0.01771987
O        1.14540318       0.27797254      -0.04539397
H       -0.08745375      -1.12371860       0.89131006
H       -0.06504757      -1.22509888      -0.87353602
H       -1.42630884       0.89590947      -0.95670875
H       -2.10321131      -0.40363515       0.26328658
H       -1.06654011       0.92845135       0.84183028
H        1.57340795       0.03682007       0.76437234
