9
Properties=species:S:1:pos:R:3 -97083.9734650826=T pbc="F F F"
C        0.02165129      -0.60118479      -0.00019850
C       -1.25049395       0.25309446       0.00067578
O        1.09240067       0.31395037       0.00252297
H       -0.10354454      -1.29335991       0.92695237
H       -0.05946109      -1.28445121      -0.89718221
H       -1.49254635       0.59698171       0.98714588
H       -0.92675950       1.25989589      -0.49786132
H       -2.17896722      -0.13444549      -0.51526721
H        2.05570631       0.01741076      -0.04951176
