9
Properties=species:S:1:pos:R:3 -97084.1629443999=T pbc="F F F"
C        0.01117719       0.46708841      -0.03690429
C       -1.33487821      -0.22313220       0.02854562
O        1.22791696      -0.19237855       0.03115343
H        0.05136227       1.20889728      -0.89211265
H        0.01188096       1.17267956       0.90264650
H       -2.02546614       0.42716687      -0.56026532
H       -1.29714398      -1.17725747      -0.66690698
H       -1.63833774      -0.40543311       1.09476526
H        1.17085261      -1.07761085      -0.27302900
