9
Properties=species:S:1:pos:R:3 -97082.89427421908=T pbc="F F F"
C        0.02856210       0.57322108      -0.04009206
C       -1.28589410      -0.24936158       0.02617393
O        1.18812142      -0.22564534       0.03562051
H       -0.21262293       1.29182684      -0.86003465
H        0.06305965       1.12618299       0.88342948
H       -1.18356429      -1.14317699       0.67325387
H       -2.24043550       0.33401652       0.34860098
H       -1.46798265      -0.76931597      -1.04888521
H        1.15603335      -1.11451774      -0.39596694
