9
Properties=species:S:1:pos:R:3 -97091.42176267234=T pbc="F F F"
C        0.02515401      -0.49235678      -0.00961420
C       -1.36253202       0.24444972      -0.00874160
O        1.24448703       0.23580252       0.05938507
H       -0.03067021      -1.09889761       0.87376622
H       -0.00741722      -1.23660058      -0.87939161
H       -2.13179280      -0.56584223       0.30215201
H       -1.41658368       1.01110165       0.78864861
H       -1.65967773       0.62408847      -0.98645732
H        1.41916010       0.47558014      -0.82264262
