9
Properties=species:S:1:pos:R:3 -97091.28734549618=T pbc="F F F"
C        0.01047819       0.55708094      -0.03415290
C       -1.32764861      -0.26931630       0.00583492
O        1.20828471      -0.24923339       0.07028701
H        0.13481148       1.18419980      -0.94023758
H        0.03216069       1.29639314       0.76246668
H       -1.53895791      -0.42477264       1.02974463
H       -2.16813390       0.44926782      -0.32935550
H       -1.19388624      -1.24180680      -0.54868530
H        1.24097322      -0.73413075      -0.75226146
