9
Properties=species:S:1:pos:R:3 -97083.75612737235=T pbc="F F F"
C        0.00032437       0.52640760      -0.03780146
C       -1.32089224      -0.26491297       0.01379989
O        1.25814714      -0.22237156       0.05248188
H       -0.00845007       0.98696710      -1.02307701
H        0.09572879       1.34135523       0.67649679
H       -2.09067059       0.59400407      -0.22592024
H       -1.56211523      -1.09838954      -0.60485464
H       -1.66223569      -0.40183039       1.11160179
H        0.98381006      -1.00648022      -0.48138952
