9
Properties=species:S:1:pos:R:3 -97083.17812479325=T pbc="F F F"
C       -0.02612693       0.50995997      -0.01378630
C       -1.34246765      -0.24403618       0.00359739
O        1.24453969      -0.22875979       0.05071909
H       -0.01922819       1.34714721      -0.71202500
H       -0.06078836       0.92623722       1.00636877
H       -1.09119211      -1.05471293       0.80632322
H       -2.17129236       0.38901220       0.12643346
H       -1.62976864      -0.72659004      -1.00137190
H        1.51614288      -0.41681874      -0.90935965
