9
Properties=species:S:1:pos:R:3 -97083.1025293674=T pbc="F F F"
C       -0.02790421      -0.56216623      -0.02480368
C       -1.34224039       0.24196605      -0.00658758
O        1.26652159       0.22605199       0.04039026
H        0.05338988      -1.05817524       0.89185351
H        0.01257850      -1.34669712      -0.85024331
H       -1.46402034       1.17031611      -0.58208891
H       -2.23480817      -0.37195719      -0.06653394
H       -1.31154788       0.82147382       0.95431110
H        1.15786819       1.00999930      -0.61455086
