9
Properties=species:S:1:pos:R:3 -97088.75710877795=T pbc="F F F"
C        0.00230793      -0.61626040      -0.02671981
C       -1.22746940       0.26783357       0.02736449
O        1.10794430       0.32776267      -0.03769915
H        0.15407323      -1.15638503       0.97870296
H       -0.23103145      -1.30656798      -0.85556366
H       -1.22504005       0.94644617      -0.87377615
H       -2.17018754      -0.32746777       0.00410980
H       -1.33976744       0.93257297       0.87921580
H        1.81586099      -0.14177112       0.45794801
