9
Properties=species:S:1:pos:R:3 -97078.59647109156=T pbc="F F F"
C       -0.02901232      -0.46583420      -0.03565472
C       -1.42168926       0.22393402       0.00940526
O        1.31524875       0.21440951       0.06618514
H        0.12880130      -1.11928965       0.95835331
H        0.09801641      -1.09759681      -0.90054914
H       -1.63194961       0.67048596       1.03492104
H       -1.59634022       0.97480338      -0.75419184
H       -2.26730051      -0.50173210      -0.25681787
H        1.66807570       0.55075865      -0.81957393
