9
Properties=species:S:1:pos:R:3 -97083.62562241642=T pbc="F F F"
C        0.08391541      -0.54540309       0.01456019
C       -1.35998884       0.22412162      -0.00793935
O        1.14390850       0.31202656       0.04262219
H        0.16567208      -1.24301617       0.91659114
H        0.25126669      -1.17400043      -0.85566342
H       -1.77253611       0.38056576      -1.05652636
H       -2.09386710      -0.41302529       0.40498965
H       -1.14304188       1.20312631       0.58012629
H        1.63183601       0.11970530      -0.74479557
