9
Properties=species:S:1:pos:R:3 -97077.63841537037=T pbc="F F F"
C        0.03762873       0.53125984      -0.02309896
C       -1.30866576      -0.24288082      -0.00768155
O        1.21865912      -0.22775854       0.05111229
H       -0.07483997       1.05732925      -1.10969890
H       -0.17726760       1.32230732       0.76458681
H       -1.99942691       0.59400508       0.14169325
H       -1.66115736      -1.04285352      -0.64107058
H       -1.32168725      -0.82970210       0.95262162
H        1.02739468      -0.92007229      -0.55282312
