9
Properties=species:S:1:pos:R:3 -97082.20828613281=T pbc="F F F"
C       -0.07860767       0.65226039      -0.03832449
C       -1.20707936      -0.31905055       0.01657178
O        1.16087618      -0.24051061       0.06270578
H       -0.04414641       1.15428193      -1.08751893
H       -0.08841446       1.41815031       0.86440362
H       -2.20567161       0.15483369       0.04295960
H       -1.08438597      -1.09669800      -0.81902419
H       -0.95978196      -0.91661893       0.92116307
H        1.26690814      -0.86434347      -0.65816367
