9
Properties=species:S:1:pos:R:3 -97089.65957596374=T pbc="F F F"
C        0.01603161       0.53827178      -0.02151562
C       -1.30976959      -0.25184503      -0.00496438
O        1.20470679      -0.22834873       0.04572075
H        0.03092260       1.08667171      -0.97165005
H        0.09763929       1.37145194       0.65789055
H       -1.22092613      -1.18414671      -0.43239145
H       -1.52738362      -0.41707231       1.04346431
H       -2.12713075       0.39606309      -0.25776238
H        1.03162405      -1.03934198      -0.44987968
