9
Properties=species:S:1:pos:R:3 -97086.37557835145=T pbc="F F F"
C       -0.03988281      -0.49111824      -0.00015575
C       -1.30526017       0.24922022      -0.01733982
O        1.21715351       0.24678494       0.05148955
H        0.05910295      -1.16595808       0.92048742
H        0.01322712      -1.21905923      -0.79546921
H       -1.96632617      -0.51293934       0.41217564
H       -1.20413827       1.18706048       0.66070008
H       -1.78904209       0.50106656      -0.93743424
H        1.58645397       0.17341186      -0.86931941
