9
Properties=species:S:1:pos:R:3 -97083.43582609833=T pbc="F F F"
C       -0.07008538       0.60104544       0.00200372
C       -1.29696193      -0.31147900       0.00126917
O        1.25950232      -0.26492302       0.06282388
H        0.02631010       1.20826384      -0.95024890
H       -0.17667241       1.33268405       0.85143777
H       -2.18933053       0.41133697      -0.27651473
H       -1.25813973      -1.13274262      -0.72035172
H       -1.44659409      -0.74929569       0.95367351
H        1.33240904      -0.31354397      -0.89402620
