9
Properties=species:S:1:pos:R:3 -97082.45177501095=T pbc="F F F"
C        0.02167376      -0.67447211       0.01838968
C       -1.22545128       0.27488212      -0.00878151
O        1.05306025       0.35678362       0.03694523
H        0.11197697      -1.46583267       0.73841111
H        0.00640115      -1.04864630      -0.96235908
H       -2.18599120      -0.24138947      -0.09265325
H       -1.15637796       0.90270206       0.94486716
H       -1.08657701       0.96854002      -0.87139815
H        1.93091037      -0.01993909      -0.45761824
