9
Properties=species:S:1:pos:R:3 -97071.87480663152=T pbc="F F F"
C       -0.00640214      -0.65959946       0.01095052
C       -1.29299826       0.31632220      -0.00152509
O        1.20253658       0.29894086       0.05578192
H       -0.05071480      -1.42910040       0.69839080
H        0.12168773      -1.37529303      -0.92577573
H       -0.96286464       1.23396911       0.48470326
H       -1.74986670       0.41149880      -1.06681078
H       -2.20460271      -0.14505847       0.61305107
H        1.23297099       0.64691909      -0.80108498
