9
Properties=species:S:1:pos:R:3 -97082.4171262242=T pbc="F F F"
C       -0.04212648      -0.50233610       0.01075892
C       -1.36552307       0.25859688      -0.02003342
O        1.29472566       0.23654359       0.05893476
H        0.01694739      -1.31750863       0.76148965
H       -0.06673274      -1.11701769      -0.87833078
H       -1.66077208       0.33041876      -1.02951719
H       -2.16498446      -0.27893860       0.56464729
H       -1.31360144       1.16429616       0.64428853
H        1.40154958       0.36679271      -0.88748495
