9
Properties=species:S:1:pos:R:3 -97087.98549666548=T pbc="F F F"
C       -0.00529829      -0.56779826      -0.04696762
C       -1.28331396       0.24817670       0.00841856
O        1.20331808       0.21533808       0.05227037
H       -0.07148337      -1.19300730       0.83020364
H       -0.10136783      -1.16756575      -0.90514410
H       -1.40216300       1.02309782      -0.77454161
H       -2.23242840      -0.30891251       0.15385662
H       -1.15231452       0.96163687       0.86494226
H        1.20551128       1.07285847      -0.53988850
