9
Properties=species:S:1:pos:R:3 -97088.58057922404=T pbc="F F F"
C       -0.00087523      -0.59054678      -0.00441935
C       -1.26138129       0.24771175      -0.02481159
O        1.14015139       0.29635745       0.05500726
H        0.05474752      -1.12160432       0.97024258
H        0.09391698      -1.47899257      -0.75075307
H       -1.24344463       1.07364933      -0.77024703
H       -2.13217668      -0.32424278      -0.06315461
H       -1.38823498       0.92250584       0.87850215
H        1.54963399       0.30735476      -0.78954727
