9
Properties=species:S:1:pos:R:3 -97078.32412162557=T pbc="F F F"
C       -0.00117744       0.64384173      -0.01461604
C       -1.26488900      -0.27037647       0.01572690
O        1.13937129      -0.33965497      -0.02090011
H       -0.13234612       1.12294016      -1.03641365
H        0.08837667       1.26146529       0.83149364
H       -2.16998821       0.06231603      -0.49350548
H       -1.07598634      -1.40453802      -0.27790092
H       -1.67734747      -0.25646077       0.96323445
H        1.95947852       0.15806135       0.33156500
