9
Properties=species:S:1:pos:R:3 -97085.48350824144=T pbc="F F F"
C        0.00778411       0.57464234      -0.01935775
C       -1.26064142      -0.25520789       0.01353555
O        1.14036616      -0.25209483       0.06241942
H        0.14690129       1.21040752      -0.96839040
H        0.05384435       1.11175600       0.93068207
H       -1.29881138      -0.83137201       0.92705998
H       -2.03859567       0.49137633      -0.19808921
H       -1.06322064      -1.04762268      -0.77364016
H        1.01900075      -0.73706853      -0.83893965
