9
Properties=species:S:1:pos:R:3 -97084.13366451033=T pbc="F F F"
C       -0.00479318      -0.55660746      -0.00845786
C       -1.27651386       0.22725301       0.02131080
O        1.17543392       0.23951251       0.04396394
H        0.21375082      -1.20512896       0.82406039
H        0.26849174      -1.09826018      -1.02105477
H       -1.35664283       0.95715149       0.88776524
H       -1.22871598       0.77917962      -0.93887285
H       -2.24336633      -0.34817148      -0.06996364
H        0.94779662       1.03555922      -0.53271182
