9
Properties=species:S:1:pos:R:3 -97093.81657817091=T pbc="F F F"
C        0.01948122      -0.57582601      -0.03280750
C       -1.29593476       0.23849341       0.00863309
O        1.17628125       0.24347954       0.04332732
H        0.10843649      -1.18031867       0.89424147
H        0.14313507      -1.17196387      -0.90316805
H       -2.14373511      -0.41476621      -0.17345536
H       -1.34820224       0.79631610       0.98228401
H       -1.32349098       1.06480675      -0.67391574
H        1.09393351       1.05829034      -0.52578184
