9
Properties=species:S:1:pos:R:3 -97086.20474490894=T pbc="F F F"
C        0.00128539      -0.55828393       0.00545309
C       -1.33158435       0.25330670      -0.03676565
O        1.18336832       0.31263428       0.04734132
H       -0.07626385      -1.22991310       0.99641432
H        0.23443265      -1.34867115      -0.83362679
H       -2.12379722      -0.48096044       0.15261946
H       -1.31463486       0.96369339       0.84631038
H       -1.47149652       0.84242736      -0.92157242
H        1.81048767      -0.07699730      -0.61865273
