9
Properties=species:S:1:pos:R:3 -97090.18338464768=T pbc="F F F"
C       -0.01831311      -0.54444610      -0.02409607
C       -1.24815136       0.23055663       0.01222179
O        1.11585501       0.31654075      -0.00756968
H        0.17913933      -1.33826913       0.82965489
H        0.00295275      -1.18963957      -0.88189287
H       -1.09834507       0.89122528       0.87301132
H       -1.33115578       0.95472836      -0.82610979
H       -2.19750638      -0.32196183       0.11482952
H        1.81506190      -0.28238634       0.15202828
