9
Properties=species:S:1:pos:R:3 -97089.0984345568=T pbc="F F F"
C        0.00525622      -0.60313984      -0.01517157
C       -1.31494832       0.24833565       0.00272595
O        1.21021538       0.25637861       0.03532791
H        0.20707877      -1.27722258       0.78560249
H       -0.00017047      -1.13978138      -0.98059273
H       -1.27790691       0.91759397      -0.82781176
H       -2.16131002      -0.31289745       0.09808812
H       -1.28085492       0.92137715       0.96495544
H        0.90044674       1.04660839      -0.45273319
