9
Properties=species:S:1:pos:R:3 -97078.96621048998=T pbc="F F F"
C       -0.05692521       0.63740678       0.01876765
C       -1.21113195      -0.26583036      -0.00670112
O        1.13795075      -0.29150911       0.06089014
H       -0.02685365       1.21849564      -0.99786513
H        0.06734046       1.39765851       0.83627938
H       -2.16094288       0.06926424      -0.27632036
H       -1.01794927      -1.12805853      -0.66770443
H       -1.34409398      -0.99977476       0.88542433
H        1.52093449      -0.35542075      -0.88985857
