9
Properties=species:S:1:pos:R:3 -97081.91587990076=T pbc="F F F"
C        0.01668148      -0.60071728      -0.01887199
C       -1.28711680       0.25310658       0.00289204
O        1.15799614       0.32993173      -0.02303380
H       -0.07885099      -1.26060170       0.92749036
H       -0.10801218      -1.26585991      -1.03290868
H       -1.69572303       0.71009859      -0.89383560
H       -2.15396252      -0.21442855       0.55186777
H       -1.10616167       1.10914374       0.59765159
H        1.89132712      -0.17566726       0.40556815
