9
Properties=species:S:1:pos:R:3 -97081.6311378783=T pbc="F F F"
C        0.00754201      -0.51902791      -0.03915779
C       -1.31101599       0.23944197      -0.00132439
O        1.23211194       0.22975764       0.05421601
H       -0.07566101      -1.16732732       0.80100940
H        0.18311271      -1.32496770      -0.78741604
H       -2.22570056      -0.35392401       0.37081076
H       -1.32556143       0.93823326       0.84133777
H       -1.52102280       0.64380381      -1.04455300
H        0.93056393       0.94674331      -0.55962207
