9
Properties=species:S:1:pos:R:3 -97087.36989908683=T pbc="F F F"
C        0.00352747      -0.65820443      -0.02837238
C       -1.23365786       0.29011019       0.00275475
O        1.09695509       0.34437532      -0.02476805
H        0.01891539      -1.13981267       1.00033548
H       -0.01050017      -1.49963687      -0.78674381
H       -1.26461431       1.08780782      -0.76567062
H       -2.13774656      -0.27186903      -0.02081851
H       -1.26721086       0.73050644       0.94138912
H        1.89863490       0.01035308       0.32961997
