9
Properties=species:S:1:pos:R:3 -97084.85207148961=T pbc="F F F"
C        0.03766944      -0.63224622      -0.00053787
C       -1.28433876       0.23447429       0.00053159
O        1.10103926       0.35958987       0.00174052
H        0.09495565      -1.43319471       0.80825020
H        0.07537585      -1.22867665      -0.90984350
H       -1.61705272       0.37155402      -1.06926555
H       -2.13414536       0.07940428       0.77141104
H       -1.01682136       1.29187612       0.28303201
H        1.96727380      -0.05171305       0.08886714
