9
Properties=species:S:1:pos:R:3 -97084.12351083067=T pbc="F F F"
C       -0.01574398      -0.55824595      -0.02759621
C       -1.24271709       0.24863535      -0.00168344
O        1.12440378       0.25869292       0.07465033
H        0.26282070      -1.32651404       0.82670558
H        0.05774310      -1.14960940      -0.98490564
H       -1.16726317       1.01285859      -0.84001002
H       -2.24017227      -0.36154201       0.06170154
H       -1.20691541       0.85947141       0.95033269
H        1.43296341       0.54617154      -0.84995124
