9
Properties=species:S:1:pos:R:3 -97082.38716342695=T pbc="F F F"
C        0.01445916       0.50654862      -0.00320575
C       -1.36725178      -0.22029087      -0.00189478
O        1.23523437      -0.25092561       0.06127146
H        0.22191381       1.28977357      -0.83666724
H        0.00807971       1.00406355       0.99888987
H       -1.99181302      -0.12894470       0.89950143
H       -2.02237888       0.14786850      -0.93050825
H       -1.24910771      -1.31581812      -0.16461151
H        1.53671025      -0.42299338      -0.87829569
