9
Properties=species:S:1:pos:R:3 -97076.53511599437=T pbc="F F F"
C        0.01118531       0.59144567      -0.00825930
C       -1.28290745      -0.26525334      -0.01488297
O        1.16175910      -0.32280350       0.03799861
H        0.02747099       1.55790684      -0.50342393
H        0.06026677       0.92334275       1.07555350
H       -2.12713658       0.41277567       0.34956295
H       -1.54953303      -0.52191176      -1.13190409
H       -1.40222547      -1.19860259       0.57765117
H        1.69537492       0.06569865      -0.69495408
