9
Properties=species:S:1:pos:R:3 -97079.09142342489=T pbc="F F F"
C       -0.01806598      -0.53313944      -0.00196552
C       -1.29867010       0.25052342       0.00664942
O        1.19613488       0.22949001       0.05750069
H       -0.00937605      -1.18384749       0.91221997
H       -0.17001188      -1.21895421      -0.90570280
H       -1.76393135      -0.01677646      -1.01708331
H       -1.94445743       0.17272405       0.84890497
H       -0.95284276       1.42015377       0.01589254
H        1.53524172       0.54958776      -0.82257934
