9
Properties=species:S:1:pos:R:3 -97090.963071548=T pbc="F F F"
C       -0.00626881       0.58133411      -0.04389215
C       -1.29617649      -0.24534048       0.02746232
O        1.19644882      -0.25984615       0.06192152
H        0.08957363       1.20509968      -0.89932104
H        0.20005051       1.22158780       0.88887555
H       -1.43864108      -0.86521157      -0.93588811
H       -1.32188029      -0.92791848       0.88718235
H       -2.18761065       0.30649752       0.05010401
H        1.17799002      -0.81672658      -0.77806495
