9
Properties=species:S:1:pos:R:3 -97086.73826288471=T pbc="F F F"
C        0.00265782      -0.54158515      -0.02653649
C       -1.39216880       0.26437399      -0.00246544
O        1.26944982       0.24130624       0.06804868
H       -0.05544561      -1.13651562       0.90406726
H        0.00617592      -1.21814018      -0.92565496
H       -2.14460401      -0.50834473       0.40145961
H       -1.29452078       1.13732344       0.65092035
H       -1.51060760       0.62149090      -0.96795675
H        1.39658133       0.57518681      -0.79749644
