9
Properties=species:S:1:pos:R:3 -97091.84125348544=T pbc="F F F"
C       -0.00902726       0.54649316      -0.05489116
C       -1.25336652      -0.25237649       0.00438197
O        1.17759997      -0.22577889       0.06006263
H        0.01851183       1.31041337      -0.76799632
H       -0.01352248       1.10331316       0.86839495
H       -2.15274313       0.40294530      -0.01697287
H       -1.34739577      -1.04265139      -0.77428039
H       -1.30634297      -0.77583536       1.02240501
H        1.14323289      -0.91690705      -0.68338351
