9
Properties=species:S:1:pos:R:3 -97081.20053660515=T pbc="F F F"
C        0.04089189      -0.58013195      -0.01043008
C       -1.36080703       0.27953948       0.00270948
O        1.22143919       0.26765125       0.06200864
H        0.07379886      -1.39414054       0.73627672
H       -0.15150724      -1.19525711      -0.95002502
H       -1.72893333       0.59332973      -0.93127584
H       -2.16162336      -0.44830470       0.37666263
H       -1.21774301       1.13051962       0.71651737
H        1.51688509       0.64513650      -0.84035011
