9
Properties=species:S:1:pos:R:3 -97086.08834397493=T pbc="F F F"
C        0.00054216       0.56895638      -0.01489516
C       -1.20147030      -0.23895048       0.02484145
O        1.13430797      -0.24171244       0.04873357
H        0.02986632       1.14930489      -1.01493435
H        0.08249925       1.28277262       0.77054192
H       -1.71499019      -0.53565112       0.89294968
H       -1.97881175       0.20596453      -0.51315967
H       -1.07553597      -1.16904480      -0.46356396
H        0.95392741      -1.02651814      -0.56369940
