9
Properties=species:S:1:pos:R:3 -97085.10188092894=T pbc="F F F"
C        0.02137121       0.58288670      -0.02619877
C       -1.32181420      -0.27641892       0.00215987
O        1.20683825      -0.24992021       0.06553894
H        0.03067494       1.15017513      -0.94899685
H        0.01811104       1.32420595       0.79501359
H       -2.28940956       0.34615190       0.32222004
H       -1.37797742      -0.56515646      -1.04282408
H       -1.40504415      -1.03910321       0.74748530
H        1.35439829      -0.89891750      -0.62682162
