9
Properties=species:S:1:pos:R:3 -97085.97200994451=T pbc="F F F"
C        0.03316744      -0.52904263      -0.00626259
C       -1.36013173       0.24139413      -0.00456673
O        1.25259015       0.21522658       0.01076742
H        0.00915397      -1.26217256       0.79527540
H       -0.08598108      -1.09454376      -0.97913991
H       -2.05084641      -0.51875754      -0.16023987
H       -1.46652160       0.58466757       1.02613739
H       -1.59868579       1.10986049      -0.59190075
H        1.11330268       1.19012526      -0.13207624
