9
Properties=species:S:1:pos:R:3 -97086.29131599376=T pbc="F F F"
C       -0.02719698       0.48908608      -0.02098221
C       -1.32051225      -0.22366791       0.01512772
O        1.22842955      -0.22545950       0.05989856
H       -0.05711790       1.20350209      -0.84281985
H        0.02093764       1.15840791       0.89223416
H       -2.34580010       0.21786250      -0.24896262
H       -1.24756633      -0.96803337      -0.79051298
H       -1.39573521      -0.76271693       0.92392231
H        1.57615639      -0.43110506      -0.81478626
