9
Properties=species:S:1:pos:R:3 -97082.6735261505=T pbc="F F F"
C        0.00762468       0.59843445      -0.02286655
C       -1.31860877      -0.25407151       0.00236380
O        1.21482306      -0.23924589       0.05388136
H       -0.02015199       1.17538808      -1.04218706
H       -0.09670128       1.05234039       0.93192264
H       -2.24595242       0.35441411       0.11882836
H       -1.32554699      -1.03068650      -0.81147083
H       -1.21822942      -0.98486624       0.80530371
H        1.23612157      -0.86985449      -0.61341037
