9
Properties=species:S:1:pos:R:3 -97084.62991410562=T pbc="F F F"
C        0.00250277       0.60684439      -0.00500288
C       -1.27232507      -0.27391194       0.02120181
O        1.19901817      -0.25004920       0.00978583
H       -0.03345660       1.06874451      -1.01842651
H        0.09484928       1.36766340       0.77747057
H       -2.08035045       0.34461560      -0.51219001
H       -1.02618018      -1.25318172      -0.64084383
H       -1.58979270      -0.44597413       1.06016010
H        0.72519861      -1.07757507      -0.01435640
