9
Properties=species:S:1:pos:R:3 -97085.78626015235=T pbc="F F F"
C       -0.02153188      -0.57335027      -0.03269092
C       -1.33909537       0.27044608       0.03560607
O        1.23894774       0.25776414       0.05608045
H        0.13110071      -1.33316256       0.83707452
H        0.03723037      -1.28666300      -0.84744867
H       -2.08858168      -0.40692574      -0.34185611
H       -1.40582968       0.73823309       1.01527064
H       -1.27245976       1.05567138      -0.78710167
H        1.13629590       0.74857122      -0.80068642
