9
Properties=species:S:1:pos:R:3 -97086.44724309682=T pbc="F F F"
C       -0.03450871       0.52837219      -0.01581466
C       -1.25173372      -0.26993070      -0.01966292
O        1.18735980      -0.24233906       0.05253751
H       -0.01083667       1.31680279      -0.75786920
H        0.01463379       1.02761519       0.88536595
H       -1.97707741       0.54392843       0.23086265
H       -1.70416836      -0.79008688      -0.82803390
H       -1.19402584      -0.89629948       0.92405089
H        1.34228113      -0.43308194      -0.86575946
