9
Properties=species:S:1:pos:R:3 -97081.76601710926=T pbc="F F F"
C        0.02744616      -0.58436355      -0.01868131
C       -1.26403261       0.23755336       0.00219321
O        1.09663961       0.30972310       0.01682409
H       -0.07604433      -1.31761388       0.97420351
H       -0.01665850      -1.20501990      -0.92465105
H       -1.49891410       0.57829685       0.98031622
H       -0.93168314       1.24033192      -0.53455185
H       -2.13949767      -0.10690792      -0.46056001
H        1.98215434       0.02479201      -0.10544638
