9
Properties=species:S:1:pos:R:3 -97088.00891276609=T pbc="F F F"
C       -0.02504720      -0.56029554       0.00537199
C       -1.29949070       0.25108057       0.00371795
O        1.19810661       0.27214788       0.05817645
H        0.11798305      -1.12114871       0.92861712
H        0.06368466      -1.20220551      -0.91565704
H       -1.26623191       1.11878271       0.63592145
H       -1.45844216       0.73869391      -1.00738306
H       -2.30117816      -0.38966953       0.17561847
H        1.60040907       0.21813256      -0.84865167
