9
Properties=species:S:1:pos:R:3 -97082.99592019254=T pbc="F F F"
C        0.03887821      -0.50793760      -0.03269774
C       -1.34204180       0.22059573       0.01277565
O        1.20843740       0.21426042       0.05342038
H       -0.03778361      -1.17601399       0.80152467
H        0.03366740      -1.09721776      -0.89422866
H       -1.57974220       0.73635074      -0.98115168
H       -2.09254244      -0.44436778       0.19448976
H       -1.20527580       1.05772596       0.91374785
H        1.21944372       0.94438482      -0.64499314
