9
Properties=species:S:1:pos:R:3 -97084.94601723719=T pbc="F F F"
C       -0.01039661       0.58001072       0.02347436
C       -1.27798782      -0.27169517      -0.03871627
O        1.16839601      -0.28299647       0.04502326
H        0.01239646       1.19430888      -0.79988507
H       -0.03286213       1.14983272       0.90945723
H       -0.98770620      -1.32361173      -0.27050852
H       -1.75931440      -0.41955911       0.97690421
H       -2.12664946       0.31647188      -0.61601173
H        1.69141599      -0.09714374      -0.73302513
