9
Properties=species:S:1:pos:R:3 -97087.53478009309=T pbc="F F F"
C        0.01207949      -0.57782823      -0.02030461
C       -1.26242417       0.27668899      -0.01334866
O        1.12678166       0.26947214       0.07035399
H        0.06215321      -1.26202007       0.82808314
H        0.08772566      -1.09572515      -0.95545968
H       -1.03687020       1.28501015      -0.41574519
H       -2.13577109      -0.31068302      -0.51605632
H       -1.61552046       0.26726229       1.08047950
H        1.64308015       0.42505073      -0.73716660
