9
Properties=species:S:1:pos:R:3 -97086.26887128848=T pbc="F F F"
C       -0.00679722       0.61092489       0.00263372
C       -1.33184020      -0.26746735      -0.00358530
O        1.18540852      -0.30245965       0.05375229
H        0.05606060       1.32404758      -0.83335667
H        0.18143457       1.30265264       0.86039221
H       -1.10987367      -1.12696191      -0.54797712
H       -1.40779794      -0.63427766       0.97874038
H       -2.17480507       0.18947722      -0.43843152
H        1.58061446      -0.34417390      -0.86112485
