9
Properties=species:S:1:pos:R:3 -97081.27285098734=T pbc="F F F"
C       -0.02970348       0.62460598      -0.04277759
C       -1.33321210      -0.29554532       0.00104736
O        1.23788316      -0.25580369       0.06295751
H        0.00416951       1.29605133      -0.89892823
H        0.05984648       1.09210288       0.93485531
H       -1.85127420       0.06197571       1.02081455
H       -1.96542220      -0.18851835      -0.88917859
H       -1.00437524      -1.30871852       0.10602514
H        1.33895389      -0.81117166      -0.77589492
