9
Properties=species:S:1:pos:R:3 -97076.90820705364=T pbc="F F F"
C        0.02738420       0.52272759      -0.03992704
C       -1.36900935      -0.23818975       0.01955695
O        1.25259645      -0.23473816       0.06449436
H       -0.11045927       1.21909313      -0.82830565
H       -0.07643477       1.27803801       0.83771002
H       -2.10853240       0.23435798      -0.60821419
H       -1.14950731      -1.27114324      -0.35409869
H       -1.58339221      -0.42116144       1.05679081
H        1.12321216      -0.70166277      -0.88491139
