9
Properties=species:S:1:pos:R:3 -97088.73165042514=T pbc="F F F"
C        0.01367098       0.60852120      -0.04038324
C       -1.29208765      -0.27267240       0.00694683
O        1.18025683      -0.26043405       0.06092973
H        0.03415764       1.23803948      -0.93776643
H        0.01876863       1.20621435       0.98411254
H       -1.44155518      -0.64214439       1.06410552
H       -2.27457835       0.28446733      -0.31858687
H       -1.13600697      -1.13714003      -0.63893697
H        1.28957014      -0.81505352      -0.72180520
