9
Properties=species:S:1:pos:R:3 -97083.79196477961=T pbc="F F F"
C       -0.07384479       0.58217361       0.00552272
C       -1.25626758      -0.26215014       0.02223409
O        1.19693356      -0.26132430       0.05869477
H       -0.01589301       1.24800685      -0.93313486
H        0.03449725       1.22900536       0.88529277
H       -2.20907359       0.20304601      -0.35292774
H       -1.04725290      -1.10169090      -0.80745051
H       -1.42401304      -0.91999745       0.80878840
H        1.50295129      -0.32142819      -0.86259228
