9
Properties=species:S:1:pos:R:3 -97085.69324008655=T pbc="F F F"
C        0.00836575       0.62644810      -0.02493876
C       -1.33269781      -0.27058630       0.00064698
O        1.23126579      -0.27196622       0.04957820
H        0.07116642       1.35193917      -0.89864571
H        0.06275369       1.30574413       0.86182253
H       -2.21735302       0.30869002      -0.28062880
H       -1.15555098      -1.17660228      -0.59745562
H       -1.54095323      -0.71750544       1.05134308
H        1.00745060      -0.99314986      -0.63403929
