9
Properties=species:S:1:pos:R:3 -97084.49441620102=T pbc="F F F"
C        0.01441851      -0.55422823       0.01756573
C       -1.31776572       0.26723511      -0.02925918
O        1.19256240       0.27004377       0.06307828
H       -0.07045625      -1.19478569       0.84548862
H       -0.02316527      -1.31119955      -0.86523439
H       -1.60363986       0.53134590       1.06029973
H       -1.06356239       1.17420567      -0.54454953
H       -2.17344051      -0.34261263      -0.42627847
H        1.52616543       0.27443360      -0.93159230
