9
Properties=species:S:1:pos:R:3 -97089.2330902196=T pbc="F F F"
C        0.04233991      -0.53428315      -0.00293207
C       -1.32567054       0.24075359      -0.01016094
O        1.17278069       0.29267359       0.06237043
H        0.06062989      -1.34285546       0.80776717
H        0.02908095      -1.21635000      -0.85533760
H       -1.34465391       1.10964846       0.65228676
H       -1.63341399       0.66103820      -1.00065132
H       -2.11768067      -0.50524899       0.36088703
H        1.67355499       0.14383172      -0.79891976
