9
Properties=species:S:1:pos:R:3 -97088.2674140967=T pbc="F F F"
C       -0.01721280       0.57969765      -0.02261200
C       -1.28745613      -0.28998269       0.01964723
O        1.19140569      -0.25253580       0.06955228
H       -0.06174718       1.12794384      -0.95424583
H        0.02936584       1.20023742       0.87131080
H       -2.01626908       0.25041755       0.69485691
H       -1.72629283      -0.22388037      -1.02939204
H       -0.99190003      -1.30138929       0.23996727
H        1.39283993      -0.49498907      -0.89104125
