9
Properties=species:S:1:pos:R:3 -97077.47138042911=T pbc="F F F"
C        0.00101835       0.63118183      -0.02484467
C       -1.30202068      -0.28381707       0.03571754
O        1.19793801      -0.26624650       0.04338119
H       -0.19158674       1.34322875      -0.96030641
H        0.21160218       1.30510338       0.80335113
H       -2.36534360       0.22967677       0.04090241
H       -1.38147729      -0.99705281      -0.82287632
H       -0.96876391      -0.88888658       0.84312028
H        1.17423580      -0.90255698      -0.72214332
