9
Properties=species:S:1:pos:R:3 -97085.8453810389=T pbc="F F F"
C       -0.02358234       0.63760903      -0.03048548
C       -1.26920649      -0.29617675       0.02352919
O        1.21435202      -0.27106068       0.06071221
H       -0.09196365       1.36008692      -0.91415535
H       -0.05563703       1.27500574       0.87537378
H       -2.20652687       0.30015254      -0.09679907
H       -1.26670479      -1.10180355      -0.86931807
H       -1.37781993      -0.87182282       0.92603096
H        1.11901954      -0.72506479      -0.80185181
