9
Properties=species:S:1:pos:R:3 -97082.75096589579=T pbc="F F F"
C        0.01887653      -0.63101648      -0.02761440
C       -1.27001388       0.27184212       0.01634760
O        1.20216806       0.26908857       0.04184212
H        0.20675431      -1.34692649       0.78248895
H       -0.09646074      -1.08760758      -1.05731976
H       -2.15141041      -0.29193683      -0.28368130
H       -1.76054582       0.49279095       1.03045819
H       -1.25971159       1.13957669      -0.59656483
H        0.87917272       1.10009996      -0.40529409
