9
Properties=species:S:1:pos:R:3 -97081.4457896757=T pbc="F F F"
C       -0.07315678      -0.62003142      -0.00931931
C       -1.20203119       0.29145764      -0.00289251
O        1.16264730       0.27300458       0.06983604
H        0.00351854      -1.31081924       0.86480710
H       -0.01308137      -1.25365879      -0.93386282
H       -2.29598600      -0.19820449       0.06651869
H       -1.20151054       0.99177864       0.89968996
H       -1.28962073       0.97415168      -0.96627945
H        1.52806840       0.37624308      -0.89381808
