9
Properties=species:S:1:pos:R:3 -97082.05534412462=T pbc="F F F"
C       -0.00714666      -0.50640347      -0.00383212
C       -1.40479536       0.24632334       0.00811367
O        1.28533006       0.26246162       0.05607791
H       -0.03545668      -1.30652802       0.80333521
H       -0.10369333      -1.16847475      -0.84982249
H       -2.07031343      -0.55067401      -0.17532322
H       -1.60453635       0.76829184       0.88994752
H       -1.55465044       1.03990452      -0.85825332
H        1.78128111       0.14875370      -0.75086058
