9
Properties=species:S:1:pos:R:3 -97084.15448959812=T pbc="F F F"
C       -0.03302978      -0.60337898      -0.01222841
C       -1.24574320       0.28534808      -0.02179491
O        1.16411856       0.27865313       0.06655628
H       -0.17741789      -1.11449412       0.92933647
H        0.10474419      -1.34678723      -0.74409209
H       -1.34920249       0.95552070      -0.76425942
H       -2.19616427      -0.25264291      -0.07800939
H       -1.22469238       0.80347686       0.89657708
H        1.59345728       0.31923881      -0.89073927
