9
Properties=species:S:1:pos:R:3 -97084.74145962992=T pbc="F F F"
C       -0.02385183       0.57149519      -0.01682035
C       -1.29017394      -0.27883424       0.00369659
O        1.20101899      -0.28010790       0.05962575
H       -0.10485723       1.31576478      -0.79836257
H        0.13162153       1.22199427       0.98327712
H       -1.39913474      -0.99200505       0.76486913
H       -2.09496794       0.48676540       0.07154042
H       -1.44922951      -0.82557753      -0.89539018
H        1.50140463      -0.24608989      -0.91597548
