9
Properties=species:S:1:pos:R:3 -97088.49958723068=T pbc="F F F"
C       -0.04921619       0.58189900      -0.01900070
C       -1.27405654      -0.27138424       0.00311183
O        1.22731447      -0.26405725       0.06731466
H        0.05210866       1.21512326      -0.92004125
H        0.03372129       1.16543167       0.92367564
H       -2.21391041       0.38632463      -0.01153275
H       -1.47464098      -0.96645168      -0.87949318
H       -1.51684698      -0.86511803       0.88959495
H        1.39717884      -0.44177576      -0.88134978
