9
Properties=species:S:1:pos:R:3 -97086.72819736322=T pbc="F F F"
C       -0.00392206      -0.58599736      -0.00732621
C       -1.28126445       0.26615874       0.00123672
O        1.12186015       0.32261732       0.00146942
H        0.04474876      -1.12750395       0.90262635
H        0.17227557      -1.35253058      -0.79989520
H       -2.16025280      -0.36955712       0.44137342
H       -0.95689739       1.15575560       0.45669503
H       -1.59644359       0.52402212      -0.94077043
H        1.99433044      -0.14209334      -0.01084328
