9
Properties=species:S:1:pos:R:3 -97083.08818412913=T pbc="F F F"
C        0.02270484      -0.58996827      -0.02567422
C       -1.29697738       0.27329406       0.01900381
O        1.19284979       0.25136805       0.02731635
H        0.00857632      -1.42190397       0.74133716
H        0.06536522      -1.15573965      -0.89435505
H       -1.64752774       0.26378786       1.15030466
H       -1.15728981       1.21592124      -0.47851369
H       -1.99722260      -0.23550245      -0.68188691
H        0.96925167       1.11462925      -0.19099316
