9
Properties=species:S:1:pos:R:3 -97091.83575856201=T pbc="F F F"
C        0.02047888       0.57856141      -0.00184287
C       -1.30291126      -0.23943423      -0.01200347
O        1.14928410      -0.31693087       0.02082259
H        0.00041395       1.21656196      -0.91198839
H       -0.00263036       1.12638700       0.97316577
H       -1.20404584      -1.02385530      -0.77460925
H       -1.43690261      -0.67938782       0.93335413
H       -2.27092935       0.22920605      -0.14122658
H        1.94382422       0.12308169      -0.24429921
