9
Properties=species:S:1:pos:R:3 -97083.75373568063=T pbc="F F F"
C       -0.00894010       0.59490178      -0.03512207
C       -1.35116917      -0.25998531       0.02612246
O        1.21499176      -0.32738455      -0.01987818
H        0.06764688       0.97787699      -1.00230694
H        0.15856690       1.42992977       0.67983864
H       -2.26209004       0.21354447      -0.43278723
H       -1.28199221      -1.24689341      -0.48521381
H       -1.60814387      -0.31661693       1.13108897
H        1.83779946       0.15019646       0.53201828
