9
Properties=species:S:1:pos:R:3 -97090.99062090169=T pbc="F F F"
C        0.02744528      -0.59423438      -0.03881274
C       -1.27244174       0.27944493       0.01212933
O        1.16741438       0.26076394       0.06384637
H       -0.06568223      -1.35181427       0.81553750
H        0.00051627      -1.12063629      -0.92730761
H       -1.20112397       1.00635051       0.85339782
H       -1.55509916       0.73049959      -0.90796923
H       -2.02579795      -0.46018018       0.22536526
H        1.14343321       0.80541165      -0.75459716
