9
Properties=species:S:1:pos:R:3 -97089.84238487149=T pbc="F F F"
C       -0.05061795      -0.58696949      -0.02243392
C       -1.24467606       0.27088895       0.01793940
O        1.13827167       0.29523747      -0.02870962
H        0.04828156      -1.24012016       0.80474334
H        0.02170144      -1.17617569      -0.90291396
H       -1.24986609       0.64922594       0.95752819
H       -1.06905159       1.02902326      -0.74938436
H       -2.24493329      -0.16234934      -0.09966778
H        1.85151437      -0.02172014       0.49885258
