9
Properties=species:S:1:pos:R:3 -97079.99302745669=T pbc="F F F"
C       -0.06400836      -0.48254169       0.00129988
C       -1.30743427       0.23477620       0.00162025
O        1.21970761       0.23266859       0.06181824
H        0.06744474      -1.09741287       0.84127410
H        0.02365006      -1.33177227      -0.81231876
H       -1.28566542       1.13783521       0.57772205
H       -1.46005478       0.65470382      -1.07142216
H       -2.11570405      -0.38671544       0.27718773
H        1.74221689       0.28084339      -0.82831270
