9
Properties=species:S:1:pos:R:3 -97085.60589105105=T pbc="F F F"
C       -0.02108523      -0.61031625      -0.01684247
C       -1.15924016       0.30191140       0.01337625
O        1.06396791       0.32417925       0.00462116
H       -0.11904556      -1.25171125       0.89516126
H        0.04335735      -1.20759147      -0.89764341
H       -2.01509229      -0.41051417      -0.32448378
H       -1.41287699       0.56196142       1.05945703
H       -1.15488999       1.04484867      -0.83428842
H        1.82653679      -0.20982945       0.06972774
