9
Properties=species:S:1:pos:R:3 -97086.39766546941=T pbc="F F F"
C       -0.06383689      -0.51109540      -0.03739063
C       -1.31441223       0.23878035       0.01489122
O        1.25871240       0.20491619       0.05941806
H        0.08102769      -1.26615177       0.77708965
H       -0.01584341      -1.12962000      -0.97036773
H       -1.11727628       1.25021097      -0.60011310
H       -2.18042438      -0.28814040      -0.30461168
H       -1.53743607       0.58583845       1.05952250
H        1.20384944       0.83810279      -0.63663074
