9
Properties=species:S:1:pos:R:3 -97079.44457746844=T pbc="F F F"
C       -0.00007233       0.64446079       0.00406960
C       -1.25990075      -0.27793440      -0.00559738
O        1.13728774      -0.32588026       0.05181685
H       -0.06432196       1.37734418      -0.88578986
H        0.12348301       1.34880247       0.94386709
H       -2.18750027       0.05021346       0.43413302
H       -1.68076660      -0.60070936      -0.97424136
H       -0.91048112      -1.17038476       0.51953719
H        1.67228880      -0.19747672      -0.84168620
