9
Properties=species:S:1:pos:R:3 -97074.18781101193=T pbc="F F F"
C       -0.03004331       0.54402106      -0.01700949
C       -1.31201944      -0.25240342      -0.02338246
O        1.18582684      -0.31045890       0.01074376
H        0.13591591       1.36462210      -0.82256375
H        0.04518757       0.98217438       1.18651089
H       -2.18651086       0.44129440       0.11949656
H       -1.55947625      -0.85865272      -0.91356654
H       -1.26445528      -0.74814638       0.96872800
H        1.98911762       0.27367513      -0.22817643
