9
Properties=species:S:1:pos:R:3 -97085.2425158555=T pbc="F F F"
C        0.02630772       0.59153169      -0.02367428
C       -1.29801361      -0.26474008       0.01599565
O        1.16470268      -0.25630331       0.05984491
H       -0.00673671       1.03358095      -1.09992258
H        0.01775413       1.40833637       0.82706165
H       -2.08554279       0.34261754      -0.37691645
H       -1.13054266      -1.15394408      -0.61781312
H       -1.47184977      -0.63881198       1.03497881
H        1.33422532      -0.81511098      -0.62574249
