9
Properties=species:S:1:pos:R:3 -97080.88979243892=T pbc="F F F"
C       -0.03728058       0.54629636      -0.01669399
C       -1.22169180      -0.25017434       0.03167182
O        1.16495371      -0.22129357       0.03206045
H        0.05017091       1.16899046      -0.97341778
H        0.03353846       1.52789859       0.71370241
H       -2.20581626       0.18894516      -0.13540227
H       -1.16283729      -0.93182474      -0.90466823
H       -1.28012879      -0.85955340       0.90277952
H        1.06678072      -1.10824061      -0.29015460
