9
Properties=species:S:1:pos:R:3 -97079.04749948689=T pbc="F F F"
C       -0.01818505       0.60753202      -0.02479927
C       -1.31627522      -0.25522086      -0.01122891
O        1.19746103      -0.29109107       0.07178671
H        0.33818570       1.05222902      -0.93907698
H        0.04951533       1.25563905       0.91486415
H       -2.20444088       0.35674259      -0.13016663
H       -1.54712975      -1.09118105      -0.71526620
H       -1.29108355      -0.74612746       1.02880501
H        1.53956747      -0.40238415      -0.86948517
