9
Properties=species:S:1:pos:R:3 -97087.6283229185=T pbc="F F F"
C        0.00946501      -0.54429168      -0.02659376
C       -1.27088955       0.23507887       0.01619264
O        1.14096310       0.29626850      -0.02677158
H       -0.07744374      -1.30510039       0.93020489
H        0.09418304      -1.13757232      -0.94697298
H       -1.48534663       0.72113945       0.96424304
H       -1.17671028       1.00531212      -0.68814074
H       -2.25453035      -0.26186124      -0.24404317
H        1.81150153      -0.04216979       0.53343774
