9
Properties=species:S:1:pos:R:3 -97084.3845749444=T pbc="F F F"
C        0.00786924      -0.53719578      -0.07518259
C       -1.37455586       0.24677064       0.00109660
O        1.26847420       0.23756332       0.07644691
H        0.04733362      -1.09779641       0.93312954
H        0.06869009      -1.23961297      -0.87654268
H       -1.47698499       0.78206233       0.91108771
H       -1.63112878       0.93948067      -0.83844175
H       -2.11302078      -0.52175591       0.28162473
H        1.24640818       0.82536242      -0.74199630
