9
Properties=species:S:1:pos:R:3 -97082.98064933959=T pbc="F F F"
C        0.03965774       0.48424409      -0.01651517
C       -1.33178920      -0.24913203      -0.00116705
O        1.19175059      -0.22871189       0.06539766
H       -0.09803904       1.17149613      -0.84614648
H        0.06806418       1.06344064       0.85302447
H       -1.36268594      -1.12285359       0.50384104
H       -2.01619368       0.49984457       0.53342116
H       -1.67800635      -0.27331707      -1.01647038
H        1.55810205      -0.50822616      -0.85503894
