9
Properties=species:S:1:pos:R:3 -97088.70452535477=T pbc="F F F"
C        0.00120794       0.51034231      -0.03410326
C       -1.30801467      -0.25184922       0.01379566
O        1.17663867      -0.27168529      -0.04640300
H        0.15073205       1.24976136      -0.80035443
H        0.02395494       1.08061298       1.00617629
H       -1.53050138      -0.71950348       0.95430509
H       -1.99795650       0.60574215      -0.05344622
H       -1.42474420      -0.86560558      -0.88892508
H        1.66432948      -0.11699755       0.76049269
