9
Properties=species:S:1:pos:R:3 -97093.51926464311=T pbc="F F F"
C        0.02272093       0.55092462      -0.02657809
C       -1.26905239      -0.23262743       0.02371557
O        1.17262152      -0.23839570       0.05210166
H        0.01523614       1.12211468      -0.99015002
H       -0.00215472       1.25316603       0.79307329
H       -2.23006068       0.25002940       0.23740671
H       -1.52941496      -0.74652037      -0.97362379
H       -1.09622875      -1.01233173       0.78287820
H        1.07212368      -0.87285531      -0.64239191
