9
Properties=species:S:1:pos:R:3 -97083.77851578876=T pbc="F F F"
C       -0.01820756      -0.58257313       0.01780126
C       -1.27613614       0.26735974      -0.01054956
O        1.14318962       0.28431003       0.04250604
H        0.02522288      -1.12847932       0.89204997
H       -0.05297864      -1.26486581      -0.93301761
H       -1.52203470       0.52067029      -1.02917553
H       -2.16374018      -0.23267853       0.53426596
H       -0.83491973       1.28885991       0.37754009
H        1.81673014       0.05747893      -0.60260938
