9
Properties=species:S:1:pos:R:3 -97091.54469197943=T pbc="F F F"
C        0.02290946      -0.54512151      -0.04133932
C       -1.35182713       0.24682156       0.00186519
O        1.23252510       0.23634641       0.06209479
H       -0.00215950      -1.23586324       0.83964340
H        0.06242173      -1.17992491      -0.90381723
H       -2.07759625      -0.52321379      -0.12273382
H       -1.47755413       0.73570679       1.02066952
H       -1.43149716       1.07349458      -0.66472288
H        1.18851258       0.93061788      -0.68451661
