9
Properties=species:S:1:pos:R:3 -97086.48711905532=T pbc="F F F"
C        0.04489330       0.51740481      -0.02532792
C       -1.29893346      -0.20530323      -0.00371507
O        1.18861363      -0.23069554       0.02801914
H        0.04816697       1.25891720      -0.95681335
H        0.13085481       1.18600591       0.85850470
H       -2.14352926       0.42329908       0.20219309
H       -1.68527322      -0.95794415      -0.74454952
H       -1.24931708      -0.84688471       0.89524775
H        0.96657822      -1.11822777      -0.35345689
