9
Properties=species:S:1:pos:R:3 -97091.5063587296=T pbc="F F F"
C        0.05967639      -0.58689402      -0.02851497
C       -1.30013671       0.25206602      -0.00746884
O        1.15049211       0.27228949       0.06069188
H        0.03244585      -1.25321243       0.82039609
H        0.16171421      -1.23661763      -0.93513515
H       -1.50624826       0.93927871      -0.75561936
H       -2.16063797      -0.39338675       0.01969343
H       -1.32452894       0.74154042       0.98296555
H        1.30805901       0.86770554      -0.66707176
