9
Properties=species:S:1:pos:R:3 -97075.3162501998=T pbc="F F F"
C        0.06846068       0.60599254       0.00543618
C       -1.34521416      -0.23718006       0.01489292
O        1.21210804      -0.28027134       0.02904023
H        0.19558551       0.99274395      -1.03965570
H        0.10611253       1.52464144       0.64667275
H       -2.32130462       0.27716536       0.15659499
H       -1.56518997      -0.64235938      -1.01452426
H       -1.23818968      -1.00283641       0.91107849
H        0.78803694      -1.09263246      -0.36311096
