9
Properties=species:S:1:pos:R:3 -97086.9500955829=T pbc="F F F"
C       -0.02209694      -0.53532153      -0.03092583
C       -1.24509254       0.26092589       0.02834828
O        1.17539697       0.21816612       0.06761850
H       -0.02212323      -1.26918608       0.78183810
H       -0.04894858      -0.97941839      -0.99530678
H       -1.30790983       0.86636310       0.97790664
H       -1.42267278       0.94045345      -0.87476566
H       -2.15341723      -0.48283195      -0.12660045
H        1.38887692       0.72934710      -0.80553611
