9
Properties=species:S:1:pos:R:3 -97084.70674407943=T pbc="F F F"
C        0.00683346       0.51974448      -0.00504265
C       -1.28593668      -0.22335716      -0.00864249
O        1.19774489      -0.25504925       0.05774452
H        0.14500313       1.32995660      -0.82487399
H        0.06182497       1.07321866       0.91971876
H       -2.07371871       0.09044429      -0.77507188
H       -1.27624475      -1.31915158      -0.09853697
H       -1.98551519      -0.15464834       0.87971372
H        1.34963294      -0.50103591      -0.85445042
