9
Properties=species:S:1:pos:R:3 -97084.55520407853=T pbc="F F F"
C        0.02030956       0.62655936      -0.00435077
C       -1.22598718      -0.29009277       0.00909301
O        1.08670685      -0.32275718       0.00529780
H       -0.11058788       1.14696687      -1.01615963
H       -0.19902661       1.40289256       0.84365060
H       -1.06298415      -1.07653791      -0.82777546
H       -1.28322767      -0.71506255       1.05583293
H       -2.17681021       0.28418338      -0.23155745
H        1.94160718       0.07369826       0.03546405
