9
Properties=species:S:1:pos:R:3 -97086.4670915963=T pbc="F F F"
C       -0.01987581       0.48869703      -0.02479192
C       -1.31497225      -0.23423408      -0.00167186
O        1.22364267      -0.22215392       0.05012354
H        0.04653812       1.29838174      -0.82784485
H        0.04957004       1.01876342       0.99369041
H       -1.09907768      -1.15123598       0.70103369
H       -2.04560116       0.43983444       0.43962168
H       -1.82031159      -0.56152250      -0.96515041
H        1.34259228      -0.54832398      -0.82174767
