9
Properties=species:S:1:pos:R:3 -97074.86160803887=T pbc="F F F"
C       -0.05037842       0.50259324      -0.04995173
C       -1.34629910      -0.24667960       0.00558856
O        1.29334865      -0.20912028       0.07731949
H        0.06776193       1.07448588      -1.03959716
H       -0.13556582       1.22685317       0.70503314
H       -2.05630646       0.51841281       0.12998336
H       -1.47204325      -1.12881088      -0.85569944
H       -1.50725630      -0.68176196       1.02789179
H        1.20702817      -0.73740834      -0.66650338
