9
Properties=species:S:1:pos:R:3 -97089.81115533774=T pbc="F F F"
C        0.04894859       0.59271545      -0.00984183
C       -1.33183617      -0.24934620      -0.01147070
O        1.13779369      -0.33460008      -0.00232687
H        0.12277144       1.30089336      -0.79294444
H       -0.03132397       1.03485220       1.04884577
H       -1.28965355      -0.95530884      -0.84496609
H       -1.37784845      -0.76672331       1.01270213
H       -2.14265807       0.45375922      -0.13707241
H        1.93622376       0.15443466       0.00412877
