9
Properties=species:S:1:pos:R:3 -97079.03301851124=T pbc="F F F"
C        0.05967506      -0.64125033       0.02172690
C       -1.30215928       0.28359236       0.00057409
O        1.09700519       0.35444190       0.03130864
H        0.05978797      -1.42931355       0.72175850
H        0.10536302      -1.14658926      -1.00008197
H       -1.00342067       1.29577244       0.13743971
H       -1.67150841       0.16354918      -0.96681178
H       -2.10242878      -0.23441275       0.64822365
H        1.99598511      -0.01568409      -0.30295296
