9
Properties=species:S:1:pos:R:3 -97081.72960088744=T pbc="F F F"
C        0.03876896       0.55040736      -0.01793670
C       -1.29349653      -0.22401122       0.02753901
O        1.13931108      -0.26316818       0.04090557
H        0.10640493       1.36376676      -0.87014857
H        0.35475346       1.06786196       0.89776611
H       -2.19508614       0.36766548       0.13082799
H       -1.57808614      -0.77997754      -0.98307793
H       -1.06715463      -0.97458219       0.81273814
H        1.23730113      -0.75440751      -0.75163989
