9
Properties=species:S:1:pos:R:3 -97072.60041990812=T pbc="F F F"
C       -0.10639413       0.61097430       0.02379588
C       -1.28407390      -0.29135144      -0.01273473
O        1.22054045      -0.28211374       0.05195203
H        0.19655576       1.24435642      -0.88361172
H       -0.12449859       1.41535839       0.78852549
H       -2.19671371       0.11565232      -0.63728912
H       -0.93876649      -1.26157573      -0.46851135
H       -1.59805012      -0.67951472       0.92624250
H        1.84667521      -0.16262160      -0.68157542
