9
Properties=species:S:1:pos:R:3 -97080.03049411229=T pbc="F F F"
C        0.04250899       0.54408497      -0.03850154
C       -1.33169650      -0.21188179       0.01830225
O        1.22313657      -0.24138669       0.02716360
H        0.03021900       1.07142453      -0.95192275
H        0.17767060       1.28826213       0.89060206
H       -1.30729807      -1.35788308      -0.10448083
H       -1.87916272      -0.04239854       0.97183294
H       -1.88315718       0.07395467      -0.79750478
H        0.79979814      -1.15786419      -0.19912323
