9
Properties=species:S:1:pos:R:3 -97083.7465919048=T pbc="F F F"
C       -0.00985246       0.49283395       0.00499523
C       -1.34003712      -0.23614956       0.02785970
O        1.26571897      -0.23134224       0.04772980
H       -0.03533888       1.17244278      -0.96376308
H        0.11483939       1.25073213       0.73107847
H       -1.53835788      -0.93268939       0.77449675
H       -2.10046397       0.52592393      -0.02247449
H       -1.73017151      -0.76231913      -0.87812567
H        1.27451817      -0.63881816      -0.78991656
