9
Properties=species:S:1:pos:R:3 -97074.92560278349=T pbc="F F F"
C       -0.04669183      -0.63739266      -0.02900148
C       -1.19432227       0.28253983      -0.02117967
O        1.17049123       0.25681320       0.05801462
H       -0.15099131      -1.01644530       0.95778134
H        0.14639218      -1.36430100      -0.77941029
H       -1.36292231       0.92631066      -0.79705983
H       -2.32255967      -0.17881823       0.07968172
H       -1.22864706       0.94063104       0.97085576
H        1.11872514       0.84198279      -0.75508440
