9
Properties=species:S:1:pos:R:3 -97077.93296599812=T pbc="F F F"
C       -0.00177242      -0.67041072      -0.00624923
C       -1.23086055       0.30598110      -0.01024524
O        1.11012223       0.31984486       0.06348549
H       -0.01367231      -1.04816231       0.95403349
H        0.20882251      -1.45927461      -0.76138408
H       -1.62092561       0.41200650       1.03646528
H       -1.06236855       1.21695113      -0.58275400
H       -2.06485045      -0.23342330      -0.62910416
H        1.61129853       0.37493364      -0.82842037
