9
Properties=species:S:1:pos:R:3 -97079.09732293853=T pbc="F F F"
C       -0.09108853      -0.60314161      -0.01112071
C       -1.24715126       0.29829686       0.01545190
O        1.24171294       0.24468041       0.06727287
H        0.02457690      -1.24412765       0.82112967
H       -0.15292428      -1.02628578      -1.00005429
H       -2.26082001      -0.36192816      -0.08299581
H       -1.53865735       0.93593186       0.83321628
H       -1.35604038       0.95264756      -0.82575928
H        1.51117169       0.49024073      -0.86477660
