9
Properties=species:S:1:pos:R:3 -97083.59753512878=T pbc="F F F"
C        0.01056879       0.51042686      -0.01493841
C       -1.37425413      -0.24802146       0.02079417
O        1.28334165      -0.20868160       0.03004409
H       -0.11171163       1.16486036      -0.90740537
H        0.00744291       1.15422895       0.80006308
H       -1.79762554      -0.03077392       0.95718977
H       -2.03038410       0.23077727      -0.83309929
H       -1.42278202      -1.32879518      -0.12913955
H        1.22466477      -1.00278523      -0.43415354
