9
Properties=species:S:1:pos:R:3 -97088.51021382195=T pbc="F F F"
C        0.06007361       0.55590862       0.01035277
C       -1.38336818      -0.22717276       0.00623249
O        1.17853510      -0.32475412       0.01913366
H        0.06154356       1.16301619      -0.83721308
H        0.06841097       1.19890500       0.88817360
H       -2.11366947       0.47278882       0.17954046
H       -1.53637224      -0.63430593      -1.03290041
H       -1.30970365      -1.13221017       0.64113623
H        1.88182530       0.17168819      -0.33987971
