9
Properties=species:S:1:pos:R:3 -97082.62187331104=T pbc="F F F"
C        0.01686318      -0.63649950       0.01361744
C       -1.28000415       0.25404657      -0.01442738
O        1.12621680       0.34575011       0.05765056
H        0.18051301      -1.57310389       0.71782169
H        0.10163930      -1.09867782      -0.95702823
H       -2.21946315      -0.19302181       0.41864243
H       -1.23232715       1.21299914       0.56996827
H       -1.38850235       0.62861208      -1.02781744
H        1.72426557       0.08968861      -0.62689911
