9
Properties=species:S:1:pos:R:3 -97081.20469340168=T pbc="F F F"
C       -0.04376445       0.52870457      -0.02715919
C       -1.24572491      -0.26628632      -0.01193718
O        1.15836130      -0.20693553       0.06638947
H        0.03018334       1.11902306      -0.96646472
H       -0.10042416       1.33230701       0.78944071
H       -1.30968904      -0.61748817       1.09742172
H       -2.03209680       0.32671595      -0.30123164
H       -0.87524862      -1.21957141      -0.48748384
H        1.25696975      -0.78133854      -0.71981751
