9
Properties=species:S:1:pos:R:3 -97090.43408988604=T pbc="F F F"
C        0.01470911       0.60042383       0.00954366
C       -1.24313914      -0.27148187      -0.01615093
O        1.10101102      -0.31176297       0.05880260
H        0.17303231       1.26067232      -0.92595897
H       -0.02184665       1.39415209       0.83429834
H       -2.17861957       0.32701165       0.22208388
H       -1.34568853      -0.73078831      -1.06180582
H       -1.13124886      -1.03530857       0.77537438
H        1.65723338      -0.18449019      -0.69856015
