9
Properties=species:S:1:pos:R:3 -97089.14139824662=T pbc="F F F"
C       -0.03091558       0.49067165      -0.02941873
C       -1.34299370      -0.22983917       0.02412244
O        1.27667915      -0.20582580       0.05953773
H        0.05907462       1.09379429      -0.90172338
H       -0.05148897       1.20318561       0.74357868
H       -2.21459349       0.44666519      -0.22078846
H       -1.43315627      -1.04854060      -0.74127263
H       -1.42893861      -0.75088976       0.99000006
H        1.16618066      -0.78329747      -0.75163914
