9
Properties=species:S:1:pos:R:3 -97077.11858490284=T pbc="F F F"
C       -0.03636940       0.49503038      -0.05047898
C       -1.34929358      -0.23937975      -0.01744815
O        1.26864097      -0.23228170       0.08725140
H        0.11962056       1.24170586      -0.81114209
H       -0.06543441       1.16445560       0.78996679
H       -2.02365401       0.47833752       0.30128872
H       -1.44128861      -0.91838197      -0.89393491
H       -1.57463543      -0.82206770       0.90269476
H        1.34999083      -0.50155840      -0.86481963
