9
Properties=species:S:1:pos:R:3 -97088.6560382121=T pbc="F F F"
C        0.02151832      -0.60140318      -0.01787012
C       -1.27518077       0.25505834      -0.01718037
O        1.10599530       0.34207708       0.00603106
H        0.03830184      -1.22377554       0.93117514
H        0.15737294      -1.27338524      -0.84685291
H       -2.06199174      -0.33003749      -0.41280107
H       -1.43435273       0.30867115       1.07207442
H       -1.27366128       1.34460310      -0.38614488
H        1.94852706      -0.13121887      -0.03582775
