9
Properties=species:S:1:pos:R:3 -97090.75012163848=T pbc="F F F"
C        0.00151072      -0.58121991      -0.00015554
C       -1.25353467       0.23309197      -0.00686459
O        1.10750557       0.34334032       0.00365102
H        0.11514783      -1.37443197       0.78391064
H        0.11377972      -1.19954181      -0.95557445
H       -1.51656346       0.62010820       1.01353766
H       -1.08964363       1.11947925      -0.64857115
H       -2.18711595      -0.19585927      -0.24495124
H        1.89511312      -0.27371472       0.07729156
