9
Properties=species:S:1:pos:R:3 -97093.35150575865=T pbc="F F F"
C        0.04427300      -0.50369538      -0.02009652
C       -1.30138361       0.23653623       0.02054213
O        1.18548142       0.23041249       0.04823281
H        0.11206465      -1.29027102       0.76887455
H       -0.04554407      -1.17119379      -0.94939991
H       -1.55136286       0.74565081      -0.92229976
H       -2.07747553      -0.54599598       0.07423520
H       -1.38402701       0.90792652       0.91306851
H        1.10009512       0.87808825      -0.65527416
