9
Properties=species:S:1:pos:R:3 -97088.93628556767=T pbc="F F F"
C       -0.00137885      -0.56552204      -0.00521952
C       -1.26412804       0.25455222      -0.00138569
O        1.16437413       0.26668068       0.05063631
H        0.06047529      -1.08381355       0.90289494
H       -0.00606015      -1.42413596      -0.76428582
H       -2.15032531      -0.29920676      -0.17447404
H       -1.33922236       0.82122099       1.03120914
H       -1.38513704       0.94640181      -0.86390352
H        1.40898081       0.50978188      -0.85642855
