9
Properties=species:S:1:pos:R:3 -97080.79212209074=T pbc="F F F"
C       -0.01314017      -0.58943955      -0.01223684
C       -1.29339232       0.26809829      -0.00108469
O        1.16228169       0.33474015      -0.00858897
H       -0.06566798      -1.33534555       0.79102278
H        0.15981637      -1.22803015      -0.79130426
H       -2.13477598      -0.42357084      -0.21748579
H       -1.49304358       0.80663130       1.09945609
H       -1.18143758       0.99642680      -0.85355948
H        1.82551334      -0.30252532       0.26680096
