9
Properties=species:S:1:pos:R:3 -97091.56038880383=T pbc="F F F"
C        0.02396607      -0.55818554      -0.02109910
C       -1.28931117       0.25921606       0.00467500
O        1.18091020       0.23194622       0.03777282
H        0.04365056      -1.12458873       0.89306531
H       -0.00394700      -1.25647820      -0.89373376
H       -2.03843845      -0.60493788      -0.13921220
H       -1.41496820       0.80579191       1.01161321
H       -1.26316808       1.02395004      -0.77379850
H        1.00121669       1.03488642      -0.50185723
