9
Properties=species:S:1:pos:R:3 -97084.57014058602=T pbc="F F F"
C        0.02775418       0.54171773      -0.03106536
C       -1.30500731      -0.21075762      -0.00728827
O        1.16739033      -0.25308723       0.06757915
H        0.13584474       1.17421683      -0.98314195
H        0.08329194       1.22083562       0.87709694
H       -1.33392853      -0.53500997       1.00868454
H       -2.36874055       0.08542181      -0.24510050
H       -1.10744019      -1.19371954      -0.45804381
H        1.27167518      -0.67575213      -0.81535522
