9
Properties=species:S:1:pos:R:3 -97084.8502204321=T pbc="F F F"
C        0.06305285       0.60464599      -0.02402168
C       -1.33800688      -0.23707519      -0.01374881
O        1.16488248      -0.29068842       0.07197695
H        0.22101396       1.22058276      -0.93175837
H        0.09565068       1.20240913       0.83734111
H       -1.13947236      -1.13443189       0.52141252
H       -2.03134915       0.14287348       0.74415368
H       -1.73610161      -0.42694399      -1.02396206
H        1.28338732      -0.76765595      -0.83978653
