9
Properties=species:S:1:pos:R:3 -97088.94919603322=T pbc="F F F"
C       -0.00572657       0.50464294      -0.01323610
C       -1.33167584      -0.22421972      -0.01466065
O        1.19559995      -0.29284977       0.02851313
H        0.05804552       1.13084409      -0.87839792
H        0.00159485       1.18163195       0.95652533
H       -2.09179053       0.46178738       0.43106853
H       -1.53884177      -0.58141270      -1.04223945
H       -1.46279184      -1.10071928       0.65164419
H        1.98296635       0.21665572      -0.23896285
