9
Properties=species:S:1:pos:R:3 -97084.33156257549=T pbc="F F F"
C        0.00891632      -0.58038549      -0.07040981
C       -1.24684301       0.25141583       0.00304492
O        1.14793182       0.25071113       0.05956503
H       -0.05640162      -1.20018279       0.87538294
H        0.07029293      -1.48458511      -0.73759386
H       -2.06299822      -0.27949433       0.40074815
H       -0.95703158       0.95971035       0.74264830
H       -1.46688997       0.94524036      -0.82175626
H        0.99429849       0.99732924      -0.60266719
