9
Properties=species:S:1:pos:R:3 -97085.33662572502=T pbc="F F F"
C        0.01254873       0.59955387      -0.04726977
C       -1.27833025      -0.26757646       0.03069717
O        1.16034566      -0.26894757       0.07923035
H        0.06067670       1.23049420      -0.95576684
H        0.01501597       1.35926065       0.82785861
H       -1.97685977      -0.08161490      -0.77414483
H       -0.89906982      -1.34659409      -0.23548320
H       -1.86246968      -0.13796477       0.87497823
H        1.31862259      -0.70798603      -0.79755797
