9
Properties=species:S:1:pos:R:3 -97078.4370356668=T pbc="F F F"
C       -0.00202524       0.58860486       0.01105626
C       -1.30242954      -0.27877638       0.00390785
O        1.15902078      -0.28719471       0.06106219
H       -0.13752557       1.20772892      -0.98742927
H        0.29443805       1.42005624       0.79195309
H       -1.52646534      -0.86193212       0.94716900
H       -2.08305902       0.47302195      -0.19547614
H       -1.06194935      -0.97811465      -0.89223065
H        1.65198002      -0.39184660      -0.81126228
