9
Properties=species:S:1:pos:R:3 -97085.70345100568=T pbc="F F F"
C        0.00881278       0.59176534      -0.04001052
C       -1.26999340      -0.26765686       0.02849991
O        1.16437677      -0.26654152       0.07559235
H        0.02902170       1.28199395      -0.95498442
H       -0.02485603       1.32399692       0.83686986
H       -1.96918882      -0.09778317      -0.78446702
H       -0.89243160      -1.34279389      -0.24951136
H       -1.88822025      -0.13870069       0.88153855
H        1.28283237      -0.65560987      -0.79209630
