9
Properties=species:S:1:pos:R:3 -97074.08269146572=T pbc="F F F"
C       -0.01014830      -0.56427117      -0.03669713
C       -1.33165121       0.25640585       0.00760218
O        1.22611988       0.23359214       0.08588145
H       -0.07516749      -1.24749198       0.82685748
H       -0.03927005      -0.81416071      -1.10782684
H       -1.37126365       0.43640337      -1.07583184
H       -2.04872002      -0.31559791       0.53548924
H       -1.39385615       1.22122398       0.57492875
H        1.44544196       0.67804606      -0.77018923
