9
Properties=species:S:1:pos:R:3 -97076.34891897364=T pbc="F F F"
C       -0.01355271      -0.56563033      -0.02252871
C       -1.31865890       0.26535705      -0.02476545
O        1.19986179       0.27801856       0.07115177
H       -0.26952266      -1.16358907       0.97572340
H        0.26576151      -1.24494279      -0.87460186
H       -2.14266297      -0.43946763       0.20567148
H       -1.23470020       0.91022826       0.85535598
H       -1.64125987       0.87480894      -0.98423518
H        1.84212222       0.22590839      -0.74402052
