9
Properties=species:S:1:pos:R:3 -97080.87759065132=T pbc="F F F"
C       -0.00874483       0.51565977       0.00568763
C       -1.28298666      -0.23540412       0.01024762
O        1.22923006      -0.20720432       0.02044638
H        0.08009532       0.96142789      -1.05808379
H        0.07330017       1.25304359       0.68735276
H       -1.60110349      -0.67044831      -0.96372229
H       -1.55996215      -0.95364638       0.75489626
H       -2.05238481       0.54785603       0.21234259
H        0.93170730      -1.18670579      -0.14702272
