9
Properties=species:S:1:pos:R:3 -97087.57215004704=T pbc="F F F"
C       -0.03629592       0.62660815       0.00313082
C       -1.21719742      -0.30423604      -0.00967839
O        1.11750594      -0.30169373       0.03577584
H       -0.13360068       1.06085110      -0.98550421
H       -0.16036874       1.40614569       0.74650799
H       -1.03092439      -0.89604561       0.88057071
H       -2.14140312       0.22969142       0.19583801
H       -1.22772829      -0.88402222      -0.97764153
H        1.88352539       0.03304863      -0.34959884
