9
Properties=species:S:1:pos:R:3 -97083.97613661252=T pbc="F F F"
C        0.02671253      -0.53972620      -0.03770670
C       -1.30382290       0.24495262       0.00105280
O        1.19302160       0.25667169       0.08613669
H       -0.13257482      -1.26092039       0.84035558
H        0.01615236      -1.06302510      -1.02249813
H       -1.56833431       0.84145653      -0.97184061
H       -2.09540610      -0.50143557       0.38403229
H       -1.29934854       1.01323338       0.74571464
H        1.35172726       0.40694358      -0.90638379
