9
Properties=species:S:1:pos:R:3 -97090.15257075345=T pbc="F F F"
C       -0.01427916       0.54080013      -0.04679688
C       -1.28337296      -0.25127506       0.02366882
O        1.19035844      -0.23078992       0.06025854
H        0.08909188       1.23914817      -0.87711550
H        0.02560460       1.22024573       0.88933929
H       -1.10360710      -1.35978423      -0.06851307
H       -1.84046363      -0.04091343       0.91581476
H       -1.89412170       0.00750500      -0.89917373
H        1.28256516      -0.85072308      -0.64131664
