9
Properties=species:S:1:pos:R:3 -97087.24704382836=T pbc="F F F"
C       -0.03614320      -0.57860642       0.01859972
C       -1.29584752       0.29001530      -0.00708928
O        1.19937169       0.29226307       0.03987670
H       -0.03025509      -1.25239853       0.89027607
H        0.00543741      -1.24842262      -0.84612442
H       -1.55611986       0.73274577      -0.97416791
H       -1.96398652      -0.51208547      -0.00686411
H       -1.44234136       0.97938776       0.81759083
H        1.81215156       0.09855118      -0.65063546
