9
Properties=species:S:1:pos:R:3 -97086.20135391512=T pbc="F F F"
C        0.01118512       0.50488213      -0.05161659
C       -1.32954320      -0.23987711       0.01834340
O        1.20372706      -0.22325583       0.07038004
H        0.10536459       1.12567853      -0.98666743
H        0.05211278       1.22643652       0.88861275
H       -1.90343922       0.00435814      -0.90716004
H       -1.06439416      -1.25782730      -0.02244304
H       -1.86148948       0.06820687       1.00055057
H        1.26528731      -0.77899019      -0.69369697
