9
Properties=species:S:1:pos:R:3 -97084.24435442952=T pbc="F F F"
C       -0.07407049       0.49522346      -0.03351018
C       -1.29133492      -0.27922485      -0.00337555
O        1.26626445      -0.18586400       0.06467594
H       -0.19997317       1.17531478      -0.89990345
H       -0.14367083       1.10483870       0.87052384
H       -1.33767666      -1.00436693       0.87309725
H       -2.05933481       0.48621673       0.31299008
H       -1.53072765      -0.64554709      -0.97009109
H        1.43249565      -0.73851803      -0.77387859
