9
Properties=species:S:1:pos:R:3 -97082.39087608272=T pbc="F F F"
C       -0.05837073       0.61492376      -0.00559556
C       -1.31325314      -0.30191276       0.01735638
O        1.24997350      -0.26195617       0.05834917
H       -0.12476370       1.19652590      -0.91356844
H        0.00556130       1.11626441       0.92379606
H       -2.10523884       0.29846864       0.35977605
H       -1.65591077      -0.56803643      -1.06778628
H       -1.10725165      -1.20644011       0.56955495
H        1.48130752      -0.40631629      -0.93784997
