9
Properties=species:S:1:pos:R:3 -97086.78148649195=T pbc="F F F"
C       -0.01765211       0.61833905      -0.00678119
C       -1.27002511      -0.28181577       0.01914094
O        1.14816165      -0.33368067      -0.00556509
H       -0.20278548       1.27390617      -0.79970736
H        0.09176329       1.29997792       0.90732575
H       -1.15556577      -1.04174073      -0.75692247
H       -1.50834872      -0.74398625       0.99977780
H       -2.13442239       0.30075052      -0.38613030
H        2.01935262       0.19992166      -0.02318670
