9
Properties=species:S:1:pos:R:3 -97089.74112859863=T pbc="F F F"
C        0.03735496       0.55128282      -0.03260402
C       -1.30671584      -0.25564147       0.02279595
O        1.17744412      -0.25783369       0.07206312
H        0.04789628       1.00830103      -0.95053588
H       -0.01392192       1.38725116       0.65319858
H       -2.09553110       0.36730814      -0.42282802
H       -1.36963062      -1.17606624      -0.60254239
H       -1.48199730      -0.38469712       1.07379125
H        1.34035467      -0.63024014      -0.77799451
