9
Properties=species:S:1:pos:R:3 -97084.95827863719=T pbc="F F F"
C       -0.06790563      -0.57566911      -0.03944886
C       -1.24884558       0.29057112       0.00836671
O        1.20331805       0.22091337       0.05959381
H       -0.11732023      -1.24291566       0.74830593
H       -0.14249624      -1.24063181      -0.88516795
H       -0.78181687       1.13897892       0.62271930
H       -1.60110722       0.76398692      -0.92381902
H       -2.01516109      -0.26010610       0.58563505
H        1.23870208       0.72924523      -0.72338054
