9
Properties=species:S:1:pos:R:3 -97090.55385078736=T pbc="F F F"
C       -0.02170539       0.58080780      -0.03030873
C       -1.29266892      -0.25199071       0.02887588
O        1.20881519      -0.24053145       0.04739167
H        0.07845663       1.06033880      -0.96071250
H        0.16730308       1.31790097       0.74421420
H       -2.30053788       0.21044713       0.09874150
H       -1.28516707      -0.78021031      -0.98886594
H       -1.19816793      -0.89779539       0.88039200
H        1.00336863      -1.00844123      -0.50884871
