9
Properties=species:S:1:pos:R:3 -97075.62069958767=T pbc="F F F"
C       -0.04346922      -0.55016411      -0.01250279
C       -1.28912490       0.26192731       0.03730435
O        1.24915636       0.21884618       0.06321419
H       -0.11171676      -1.42899556       0.62009322
H        0.02974240      -0.98750131      -1.05491553
H       -1.33796458       1.38201982       0.26825607
H       -1.62957769       0.21058850      -1.10558034
H       -2.07962531      -0.16688695       0.61470084
H        1.17109395       0.94951398      -0.64111727
