9
Properties=species:S:1:pos:R:3 -97089.97826102412=T pbc="F F F"
C        0.08358558      -0.61381546      -0.01081400
C       -1.29670872       0.24175479      -0.01074995
O        1.07054097       0.35496833       0.01772072
H        0.04056357      -1.23953991       0.88512607
H        0.20902541      -1.29406565      -0.80877476
H       -1.36107156       1.03048285      -0.79469631
H       -2.15986852      -0.44964020      -0.06753700
H       -1.28531583       0.74082835       0.93493828
H        2.01085421       0.00839210      -0.17353872
