9
Properties=species:S:1:pos:R:3 -97085.58697418566=T pbc="F F F"
C       -0.03087237       0.53487522      -0.02026636
C       -1.35364577      -0.26183007      -0.00014681
O        1.29549389      -0.20330501       0.02516191
H       -0.12703535       1.18945417      -0.94691007
H       -0.01189924       1.28145039       0.86096252
H       -2.18179503       0.48026079       0.03567643
H       -1.28513268      -0.97265805      -0.81771690
H       -1.61074117      -0.87458925       0.88025293
H        1.14139560      -1.12842180      -0.16854659
