9
Properties=species:S:1:pos:R:3 -97085.23274210637=T pbc="F F F"
C        0.03070364      -0.60316951      -0.01554265
C       -1.31509576       0.26261593       0.03727067
O        1.19576592       0.25847536       0.03743786
H        0.20308657      -1.35013378       0.73720496
H       -0.11420878      -1.28786500      -0.89253471
H       -1.24990304       0.80612786      -0.87841516
H       -2.25252280      -0.32911698      -0.02799648
H       -1.31847575       1.01150210       0.74078803
H        1.04738768       1.10220741      -0.53192462
