9
Properties=species:S:1:pos:R:3 -97078.32320969274=T pbc="F F F"
C        0.02076905       0.53640108      -0.05329163
C       -1.40326700      -0.23352069      -0.00139958
O        1.25869282      -0.24961632       0.05531969
H        0.10930347       1.48652052      -0.66078907
H        0.16267237       0.94537632       1.03408803
H       -2.26355774       0.45010037       0.17181520
H       -1.50996555      -0.88547093      -0.89021720
H       -1.26913585      -0.94197736       0.91702570
H        1.25548111      -0.69930165      -0.79868748
