9
Properties=species:S:1:pos:R:3 -97074.49603772859=T pbc="F F F"
C        0.03432963       0.55265208      -0.02885215
C       -1.39854250      -0.23623603       0.00101757
O        1.24798676      -0.24988654       0.05418712
H        0.21074673       1.11514562      -0.92055508
H        0.02819508       1.11342102       0.92550200
H       -1.62957432      -0.06875104       1.08841585
H       -1.99514539       0.13814146      -0.87846425
H       -1.21885115      -1.27131073       0.03592428
H        1.04162241      -0.82827737      -0.77939017
