9
Properties=species:S:1:pos:R:3 -97078.87456100545=T pbc="F F F"
C       -0.07933728       0.52932280      -0.02712981
C       -1.30138238      -0.26757313       0.01736410
O        1.25557409      -0.21785170       0.06872522
H        0.01913373       1.13935020      -0.94981215
H        0.05134088       1.29914460       0.79949733
H       -2.14522105       0.17616080       0.74472877
H       -1.71679669      -0.19760772      -1.05307140
H       -1.14231595      -1.40940046       0.23670233
H        1.44697953      -0.66679136      -0.75248519
