9
Properties=species:S:1:pos:R:3 -97081.78771590309=T pbc="F F F"
C        0.06620060      -0.54691851      -0.04501512
C       -1.33821598       0.22159511       0.02068643
O        1.19700377       0.24675287       0.06090667
H        0.07051877      -1.31018832       0.83503372
H        0.04669930      -1.18065294      -0.93169606
H       -2.03569707      -0.11228749       0.75533118
H       -1.37308968       1.27722474       0.25378664
H       -1.76249771       0.20104084      -1.00842400
H        1.20241708       1.08228598      -0.58098702
