9
Properties=species:S:1:pos:R:3 -97085.68138769708=T pbc="F F F"
C        0.00187086      -0.56761201      -0.02264388
C       -1.32589540       0.26148756      -0.00914661
O        1.22819509       0.27954849       0.06204429
H        0.04338009      -1.13167135       0.99789635
H        0.14810251      -1.31431692      -0.79907037
H       -1.62626171       0.61411658       0.97416965
H       -1.47784904       1.10105965      -0.63353644
H       -2.22070798      -0.45413022      -0.27033697
H        1.40592210       0.39327636      -0.87528630
