9
Properties=species:S:1:pos:R:3 -97093.02892065239=T pbc="F F F"
C        0.02308404      -0.58583801      -0.04472710
C       -1.31587124       0.25945129       0.02383633
O        1.22141630       0.25734941       0.06072469
H        0.06290186      -1.28940949       0.81424058
H       -0.02304811      -1.13557976      -0.96895953
H       -1.55727865       0.51431035       1.02803046
H       -1.34063633       1.18778062      -0.61066818
H       -2.22047270      -0.33723181      -0.29625689
H        1.08676666       0.86203897      -0.68138858
