9
Properties=species:S:1:pos:R:3 -97087.81650512686=T pbc="F F F"
C       -0.03804954      -0.54361079      -0.00254570
C       -1.23483014       0.27011935       0.01160429
O        1.16622942       0.25236299       0.05907867
H        0.06137977      -1.22909870       0.85238590
H        0.11235083      -1.21068162      -0.90371856
H       -1.33942186       0.84760971      -0.88943299
H       -2.23073726      -0.39480051      -0.11672614
H       -1.25152837       0.81801891       0.91970731
H        1.29501003       0.42018410      -0.90769603
