9
Properties=species:S:1:pos:R:3 -97086.93845159546=T pbc="F F F"
C        0.03095972      -0.57535537      -0.04475938
C       -1.25322285       0.25067795       0.01842792
O        1.12031802       0.26762791       0.07510858
H        0.11598563      -1.20271707       0.94390220
H        0.17715806      -1.13548369      -0.93371476
H       -0.98141862       1.23504470      -0.28508812
H       -2.02725276      -0.12178493      -0.75471590
H       -1.80919401       0.19131894       0.96362888
H        1.29773940       0.65205122      -0.81251573
