9
Properties=species:S:1:pos:R:3 -97086.62399487442=T pbc="F F F"
C       -0.04400883       0.62200274      -0.02930037
C       -1.23755572      -0.31101264       0.00764874
O        1.17665315      -0.25533427       0.06929088
H       -0.08934030       1.13607364      -0.95660353
H       -0.00350480       1.46471519       0.78101263
H       -1.49324197      -0.80881355       0.98501004
H       -2.03735910       0.39861632      -0.18808212
H       -1.01846358      -1.10502976      -0.71418366
H        1.22693995      -0.73612747      -0.74904767
