9
Properties=species:S:1:pos:R:3 -97082.44403764885=T pbc="F F F"
C        0.04488937      -0.48625052      -0.02752376
C       -1.28417234       0.21319259       0.00282136
O        1.18654268       0.23437719       0.06554392
H        0.01167370      -1.10233310       0.89929280
H        0.04198476      -1.31611375      -0.90905963
H       -2.15715402      -0.52506554       0.15194721
H       -1.61167028       0.95234607       0.75607124
H       -1.59709280       0.81404028      -0.85795962
H        1.23689527       0.70864389      -0.78639431
