9
Properties=species:S:1:pos:R:3 -97080.45202834082=T pbc="F F F"
C        0.01327547      -0.53727720      -0.06644635
C       -1.40247016       0.23786228      -0.00049301
O        1.27887486       0.24147419       0.07053120
H        0.06911501      -1.11143646       0.95113292
H        0.03877331      -1.32806914      -0.87227251
H       -1.47404467       0.82424866       0.91416350
H       -1.61959040       0.97618533      -0.85054181
H       -2.09886179      -0.46273868       0.25484270
H        1.32883962       0.83452183      -0.71967069
