9
Properties=species:S:1:pos:R:3 -97088.12284515917=T pbc="F F F"
C       -0.03530899      -0.52155729      -0.03407378
C       -1.31947943       0.25203356       0.02833805
O        1.24853276       0.20426456       0.05444069
H        0.14769836      -1.30886754       0.73832612
H       -0.08026299      -0.97918237      -1.09410284
H       -1.54430937       0.45395884       1.06826247
H       -1.13025816       1.13009724      -0.54650053
H       -2.23940629      -0.29552691      -0.38372120
H        1.16265114       0.96686684      -0.57798278
