9
Properties=species:S:1:pos:R:3 -97085.65645978702=T pbc="F F F"
C        0.02171406       0.59756390       0.02631573
C       -1.30158594      -0.26367623      -0.00318703
O        1.14687932      -0.32134329       0.03683991
H       -0.01704818       0.95680893      -1.09920759
H       -0.06247145       1.47627214       0.74427682
H       -2.22340262       0.35100709       0.07781871
H       -1.26476100      -0.80296760      -0.97000981
H       -1.22576092      -0.99785574       0.80528449
H        1.83085218       0.14114305      -0.41822820
