9
Properties=species:S:1:pos:R:3 -97075.7922024335=T pbc="F F F"
C       -0.02219725      -0.60881118      -0.03425771
C       -1.28938413       0.25175243      -0.00208226
O        1.15100789       0.28420669       0.07976951
H       -0.02034825      -1.14509262       0.83779727
H        0.24423557      -1.36238451      -0.80606779
H       -0.70840773       1.21608487       0.24708456
H       -1.73569533       0.61571773      -1.01760638
H       -1.97176534      -0.03130149       0.77701791
H        1.54142533       0.44784706      -0.87153167
