9
Properties=species:S:1:pos:R:3 -97082.13721971326=T pbc="F F F"
C       -0.03008537      -0.63047165      -0.02353347
C       -1.22477911       0.28167549       0.01582726
O        1.16388002       0.25490328       0.04009687
H        0.19999769      -1.26099695       0.87293088
H        0.10726801      -1.11802875      -1.09061308
H       -1.35486968       0.77673194      -0.99095266
H       -2.24087208      -0.24205367       0.16633777
H       -1.19873465       0.84079182       0.93796522
H        0.95704649       1.11111167      -0.44027802
