9
Properties=species:S:1:pos:R:3 -97083.95257171665=T pbc="F F F"
C        0.02130003      -0.56963139      -0.01925966
C       -1.29040873       0.24800553       0.02358451
O        1.17878845       0.26821752       0.05812658
H        0.03172694      -1.27206870       0.79974055
H        0.13306483      -1.36323742      -0.88671721
H       -2.30283352      -0.39818937      -0.09306526
H       -1.22954629       0.88033362       0.87605757
H       -1.39736993       1.04912182      -0.85199337
H        1.16778960       0.67677747      -0.81802850
