9
Properties=species:S:1:pos:R:3 -97088.63047859934=T pbc="F F F"
C       -0.00304595       0.55998171      -0.01892252
C       -1.25963120      -0.25874911       0.00290099
O        1.20480462      -0.20379221       0.02076916
H       -0.03697167       1.05491654      -0.96077403
H       -0.19282646       1.17776428       0.85309880
H       -2.17691050       0.41538331       0.19980100
H       -1.43704722      -0.84127290      -0.95098989
H       -1.28027767      -0.96545288       0.82148323
H        1.03739042      -1.19373303      -0.10147517
