9
Properties=species:S:1:pos:R:3 -97089.79014552433=T pbc="F F F"
C        0.00333002       0.65333988      -0.02685732
C       -1.21484484      -0.29710576       0.01349235
O        1.12055651      -0.26412676       0.03777047
H       -0.02587421       1.31475245      -0.91091693
H       -0.00401339       1.25860690       0.83558315
H       -2.07955179       0.30570034       0.15025176
H       -1.26913231      -0.92064327      -0.93119841
H       -0.94309665      -0.95160815       0.92632895
H        0.96292287      -1.05654357      -0.51035904
