9
Properties=species:S:1:pos:R:3 -97077.18824436612=T pbc="F F F"
C        0.05073248       0.58987699      -0.00103663
C       -1.27446753      -0.23133632       0.06377958
O        1.08890742      -0.34976760      -0.01468324
H        0.03352408       1.01644009      -0.99969061
H        0.17484344       1.40075745       0.82664614
H       -1.31329459      -0.86608666       0.88417350
H       -2.15189494       0.35881137      -0.34906265
H       -1.34169077      -0.84191549      -0.98317971
H        1.88756539       0.21397652       0.10707758
