9
Properties=species:S:1:pos:R:3 -97089.89598826438=T pbc="F F F"
C       -0.03249662      -0.52572866      -0.04049322
C       -1.26596626       0.27234073       0.02148232
O        1.19565692       0.22404446       0.06933043
H        0.03656676      -1.33983616       0.73807967
H       -0.13178816      -1.17667046      -0.92292214
H       -1.32004583       0.92975439      -0.93416194
H       -2.14551339      -0.41745725       0.06104964
H       -1.36488569       0.78947258       0.90722481
H        1.41029830       0.67603536      -0.72323464
