9
Properties=species:S:1:pos:R:3 -97079.67382363124=T pbc="F F F"
C        0.03776496       0.50754668      -0.00141749
C       -1.29930587      -0.22511519       0.00096791
O        1.16350660      -0.28709483       0.03044313
H       -0.16564306       1.05935861      -0.96035760
H       -0.10714104       1.24879728       0.88136538
H       -2.10401205       0.23309967      -0.54589081
H       -1.26718223      -1.10674065      -0.57911842
H       -1.80033877      -0.38675467       1.03836278
H        1.99957458       0.14577966      -0.31216285
