9
Properties=species:S:1:pos:R:3 -97090.15357254197=T pbc="F F F"
C        0.00461449       0.54358194      -0.01362838
C       -1.29321804      -0.22676926      -0.00553897
O        1.16454289      -0.31248976      -0.00845845
H        0.08857828       1.03449123      -0.99055306
H        0.02181614       1.28478851       0.77499569
H       -1.65261582      -0.73330844      -0.85151702
H       -1.32277303      -1.05757345       0.75219832
H       -2.16866297       0.42450527       0.38218961
H        1.89469825       0.23430178       0.29515041
