9
Properties=species:S:1:pos:R:3 -97085.59168125414=T pbc="F F F"
C        0.05602940       0.62744040      -0.01598495
C       -1.26158742      -0.25527579      -0.02096881
O        1.07035160      -0.34262153       0.02093773
H        0.00732154       1.24791752      -0.86386444
H       -0.01112427       1.40444217       0.77584214
H       -0.98448439      -1.03342258       0.73169172
H       -2.15808858       0.27204844       0.48265589
H       -1.42929794      -0.84868705      -0.91808999
H        1.94278975      -0.03594640      -0.10053013
