9
Properties=species:S:1:pos:R:3 -97091.38802354207=T pbc="F F F"
C       -0.02925689       0.54871092       0.00526548
C       -1.29408005      -0.25764638       0.00003920
O        1.18966627      -0.26737386       0.06461003
H        0.08991276       1.08203158      -0.97388229
H       -0.00452130       1.41764834       0.72385368
H       -1.33153011      -0.84525415       0.90554941
H       -2.08563301       0.40339005      -0.09280698
H       -1.37049857      -0.98844010      -0.84498373
H        1.57814941      -0.29161408      -0.80630002
