9
Properties=species:S:1:pos:R:3 -97085.239970671=T pbc="F F F"
C        0.01819182      -0.55269728      -0.03596840
C       -1.33807284       0.24964625       0.00928203
O        1.21169587       0.24484707       0.07070250
H        0.01597374      -1.31635630       0.89173414
H        0.10529445      -1.19856783      -1.04359964
H       -1.25420280       0.83774375      -0.95757051
H       -2.22656374      -0.33650768       0.07963267
H       -1.38315685       0.87873906       0.92259245
H        1.22775954       0.85742497      -0.69713915
