9
Properties=species:S:1:pos:R:3 -97091.21558724169=T pbc="F F F"
C        0.01861861       0.56715412      -0.01725758
C       -1.30225436      -0.23913984       0.01515959
O        1.18451849      -0.24932196       0.04288554
H        0.19592524       1.01054942      -1.04102096
H        0.14549449       1.44855150       0.66500232
H       -2.19886549       0.37163035      -0.04848715
H       -1.28332923      -0.96026255      -0.82225067
H       -1.31692005      -0.77187042       0.96443106
H        0.94255797      -1.04728768      -0.37331877
