9
Properties=species:S:1:pos:R:3 -97089.82721695345=T pbc="F F F"
C        0.00606261       0.53645505      -0.03886685
C       -1.25275233      -0.22337939       0.01951456
O        1.17893537      -0.22462499       0.04471906
H        0.13920889       1.15187929      -0.89553421
H        0.02700748       1.22489367       0.81712460
H       -2.11950494       0.36164040      -0.19438305
H       -1.29218063      -1.04101384      -0.77063285
H       -1.54728743      -0.72086715       0.95835119
H        0.92631771      -1.13930902      -0.39422517
