9
Properties=species:S:1:pos:R:3 -97088.68741081576=T pbc="F F F"
C       -0.00124440       0.60911728       0.00638538
C       -1.19805939      -0.28683866      -0.01885733
O        1.08418107      -0.31094947       0.03765492
H       -0.03785628       1.44418945      -0.80341169
H       -0.06074704       1.24896974       0.89890992
H       -2.09169840       0.37843191       0.20878546
H       -1.45433776      -0.79685927      -0.93443790
H       -1.14448413      -1.07187815       0.71573861
H        1.86228801      -0.10517620      -0.53469382
