9
Properties=species:S:1:pos:R:3 -97087.08377889401=T pbc="F F F"
C       -0.00577667      -0.52308861       0.00811629
C       -1.33778809       0.26328750      -0.02147308
O        1.22336718       0.25070531       0.05903352
H       -0.05958835      -1.02040897       0.93161290
H        0.03514163      -1.26187773      -0.88205704
H       -2.13645112      -0.53880554      -0.08949682
H       -1.57277462       0.74475117       0.95995710
H       -1.46096024       0.87154741      -0.90618349
H        1.77650316       0.31932580      -0.79170047
