9
Properties=species:S:1:pos:R:3 -97084.6860451985=T pbc="F F F"
C        0.05407777      -0.55658346      -0.03564134
C       -1.37643975       0.23885836       0.01606261
O        1.21909327       0.25846164       0.06792923
H        0.04367922      -1.14969385       0.96071593
H        0.09307289      -1.22981220      -0.93134184
H       -1.95313255      -0.22862853      -0.81034489
H       -1.82858087       0.18270796       1.01666144
H       -1.19753171       1.34863432      -0.25959252
H        1.23973576       0.75791692      -0.82106374
