9
Properties=species:S:1:pos:R:3 -97080.20156888904=T pbc="F F F"
C       -0.02376602      -0.51895556      -0.02318896
C       -1.32660423       0.27592888      -0.00354113
O        1.26796711       0.20891089       0.04992734
H       -0.07710458      -0.84474060       0.96380376
H       -0.11998997      -1.40341771      -0.74333621
H       -1.84244520       0.54531200      -0.93433549
H       -2.07309840      -0.54990775       0.32314197
H       -1.34461017       1.06894466       0.73120523
H        1.41231735       0.76191897      -0.81459177
