9
Properties=species:S:1:pos:R:3 -97085.7285304031=T pbc="F F F"
C       -0.03850967      -0.59318339      -0.02406868
C       -1.22100042       0.29029901       0.02494417
O        1.16286691       0.25045995       0.04679154
H       -0.00621589      -1.24857138       0.85635176
H       -0.07148630      -1.37966616      -0.79894165
H       -1.57993655       0.68964700      -0.92623328
H       -1.99619473      -0.32345549       0.21189630
H       -1.03657940       1.17645442       0.65503830
H        1.23164198       0.71700278      -0.75115140
