9
Properties=species:S:1:pos:R:3 -97088.67888510077=T pbc="F F F"
C       -0.04891598       0.57665469      -0.03097288
C       -1.30698911      -0.27002650       0.01947073
O        1.26285050      -0.24487514       0.05256563
H       -0.00012399       1.21301120      -0.91060965
H        0.10450692       1.31546924       0.83468721
H       -1.31583627      -1.03645552       0.84191475
H       -2.23804552       0.37873948       0.13460787
H       -1.56735084      -0.82568662      -0.87152919
H        1.11902556      -0.80970094      -0.72637152
