9
Properties=species:S:1:pos:R:3 -97086.11436031728=T pbc="F F F"
C       -0.04098110      -0.49123331      -0.00908555
C       -1.30978743       0.24941049       0.02166303
O        1.24315295       0.21667936       0.07481010
H       -0.06121080      -1.30213296       0.68390837
H        0.07780409      -0.87754672      -1.03081846
H       -1.74033162       0.38833545       1.03766866
H       -1.26177399       1.17830040      -0.54890094
H       -2.03314401      -0.42656298      -0.62320242
H        1.37228636       0.48009099      -0.85570363
