9
Properties=species:S:1:pos:R:3 -97081.34229565602=T pbc="F F F"
C        0.02602593      -0.48661100       0.01196044
C       -1.34200010       0.22464846      -0.02919390
O        1.18693496       0.28560529       0.04291546
H       -0.09552168      -1.16395608       0.94238639
H        0.15254648      -1.32893080      -0.78759573
H       -1.89142646      -0.42112804       0.53337513
H       -1.47548740       1.14590078       0.54793584
H       -1.67672209       0.37151691      -1.10492028
H        1.81817110      -0.01702281      -0.60708487
