9
Properties=species:S:1:pos:R:3 -97090.51079965678=T pbc="F F F"
C       -0.01639931      -0.56304810      -0.03699311
C       -1.29269208       0.25621998       0.01943352
O        1.21855593       0.23723708       0.04146241
H        0.11668869      -1.12462250       0.89514805
H        0.05124289      -1.19698149      -0.97452336
H       -2.16599624      -0.36141017      -0.22100426
H       -1.31380132       0.52384494       1.08512641
H       -1.37366479       1.11275939      -0.66489113
H        0.93329073       0.93463501      -0.56881517
