9
Properties=species:S:1:pos:R:3 -97081.87112198345=T pbc="F F F"
C        0.03300357       0.60646502      -0.04920104
C       -1.28869892      -0.27950683       0.00367174
O        1.15645790      -0.27178397       0.07211554
H        0.11189566       1.12109954      -1.00734527
H        0.10174575       1.34309739       0.82216652
H       -1.61744714      -0.27314039       1.08212626
H       -2.04464595       0.43044125      -0.39538519
H       -1.35494770      -1.35018216      -0.46068654
H        1.40092272      -0.85094197      -0.64329214
